                                   MODFLOW 6
                U.S. GEOLOGICAL SURVEY MODULAR HYDROLOGIC MODEL
                          GROUNDWATER FLOW MODEL (GWF)
                   VERSION 6.3.0 release candidate 07/30/2021
                               ***DEVELOP MODE***

   MODFLOW 6 compiled Oct 27 2021 07:53:31 with IFORT compiler (ver. 20.21.1)

This software is preliminary or provisional and is subject to 
revision. It is being provided to meet the need for timely best 
science. The software has not received final approval by the U.S. 
Geological Survey (USGS). No warranty, expressed or implied, is made 
by the USGS or the U.S. Government as to the functionality of the 
software and related material nor shall the fact of release 
constitute any such warranty. The software is provided on the 
condition that neither the USGS nor the U.S. Government shall be held 
liable for any damages resulting from the authorized or unauthorized 
use of the software.


System command used to initiate simulation:
E:\15_REPOS\00_BETAMI\bin\mf6.exe

MODFLOW was compiled using uniform precision.

Real Variables
  KIND: 8
  TINY (smallest non-zero value):    2.225074-308
  HUGE (largest value):    1.797693+308
  PRECISION: 15
  BIT SIZE: 64

Integer Variables
  KIND: 4
  HUGE (largest value): 2147483647
  BIT SIZE: 32

Long Integer Variables
  KIND: 8
  HUGE (largest value): 9223372036854775807
  BIT SIZE: 64

Logical Variables
  KIND: 4
  BIT SIZE: 32
 

 OPENED test001e_UZF_3lay.dis
 FILE TYPE:DIS6                   UNIT 1005   STATUS:OLD                 
 FORMAT:FORMATTED              ACCESS:SEQUENTIAL          
 ACTION:READ                


 OPENED test001e_UZF_3lay.ic
 FILE TYPE:IC6                    UNIT 1006   STATUS:OLD                 
 FORMAT:FORMATTED              ACCESS:SEQUENTIAL          
 ACTION:READ                


 OPENED test001e_UZF_3lay.npf
 FILE TYPE:NPF6                   UNIT 1007   STATUS:OLD                 
 FORMAT:FORMATTED              ACCESS:SEQUENTIAL          
 ACTION:READ                


 OPENED test001e_UZF_3lay.sto
 FILE TYPE:STO6                   UNIT 1008   STATUS:OLD                 
 FORMAT:FORMATTED              ACCESS:SEQUENTIAL          
 ACTION:READ                


 OPENED test001e_UZF_3lay.chd
 FILE TYPE:CHD6                   UNIT 1009   STATUS:OLD                 
 FORMAT:FORMATTED              ACCESS:SEQUENTIAL          
 ACTION:READ                


 OPENED test001e_UZF_3lay.oc
 FILE TYPE:OC6                    UNIT 1010   STATUS:OLD                 
 FORMAT:FORMATTED              ACCESS:SEQUENTIAL          
 ACTION:READ                


 OPENED test001e_UZF_3lay.uzf
 FILE TYPE:UZF6                   UNIT 1011   STATUS:OLD                 
 FORMAT:FORMATTED              ACCESS:SEQUENTIAL          
 ACTION:READ                


 OPENED test001e_UZF_3lay_obs.hed
 FILE TYPE:OBS6                   UNIT 1012   STATUS:OLD                 
 FORMAT:FORMATTED              ACCESS:SEQUENTIAL          
 ACTION:READ                

 NAMEFILE OPTIONS:
    STRESS PACKAGE INPUT WILL BE PRINTED FOR ALL MODEL STRESS PACKAGES
    NEWTON-RAPHSON method enabled for the model.

 DIS -- STRUCTURED GRID DISCRETIZATION PACKAGE, VERSION 2 : 3/27/2014 - INPUT READ FROM UNIT 1005


 # File generated by Flopy version 3.8.2 on 02/21/2025 at 07:37:26.
 PROCESSING DISCRETIZATION OPTIONS
    MODEL LENGTH UNIT IS METERS
 END OF DISCRETIZATION OPTIONS
 PROCESSING DISCRETIZATION DIMENSIONS
    NLAY =       3
    NROW =       1
    NCOL =      10
 END OF DISCRETIZATION DIMENSIONS
 PROCESSING GRIDDATA

                     DELR =   100.0000    

                     DELC =   1000.000    

 TOP ELEVATION OF LAYER 1 =   0.000000    

   MODEL LAYER BOTTOM EL. =  -5.000000     FOR LAYER 1

   MODEL LAYER BOTTOM EL. =  -20.00000     FOR LAYER 2

   MODEL LAYER BOTTOM EL. =  -30.00000     FOR LAYER 3
 END PROCESSING GRIDDATA

 NPF -- NODE PROPERTY FLOW PACKAGE, VERSION 1, 3/30/2015 INPUT READ FROM UNIT 1007


 # File generated by Flopy version 3.8.2 on 02/21/2025 at 07:37:26.
 PROCESSING NPF OPTIONS
    CELL-BY-CELL FLOW INFORMATION WILL BE SAVED TO BINARY FILE WHENEVER ICBCFL IS NOT ZERO.
 END OF NPF OPTIONS

 CHD   -- CHD PACKAGE, VERSION 8, 2/22/2014 INPUT READ FROM UNIT 1009
 # File generated by Flopy version 3.8.2 on 02/21/2025 at 07:37:26.

 PROCESSING CHD OPTIONS
    CHD FLOWS WILL BE PRINTED TO LISTING FILE.
 END OF CHD OPTIONS

 PROCESSING CHD DIMENSIONS
    MAXBOUND =       2
 END OF CHD DIMENSIONS

 UZF   -- UZF CELLS PACKAGE, VERSION 8, 2/22/2014 INPUT READ FROM UNIT 1011
 # File generated by Flopy version 3.8.2 on 02/21/2025 at 07:37:26.

 PROCESSING UZF CELLS OPTIONS
    UZF CELLS BOUNDARIES HAVE NAMES IN LAST COLUMN.
    UZF CELLS FLOWS WILL BE PRINTED TO LISTING FILE.

 OPENED test001e_UZF_3lay.uzf.cbc
 FILE TYPE:DATA(BINARY)   UNIT 1014   STATUS:REPLACE             
 FORMAT:UNFORMATTED            ACCESS:STREAM              
 ACTION:READWRITE           

    UZF  BUDGET  WILL BE SAVED TO FILE: test001e_UZF_3lay.uzf.cbc                                                                                                                                                                                                                                                                                                                                                                                                                                                                                                                                                                                                                                                                                                                                                                                                                                                                                                                                                                                                                                                                                                                                                                                                                                                                                                                                                                                                                                                                                                                                                                                                                                                                                                                                                                                                                                                                                                                                                                                                                                                                                                                                                                                                                                                                                                                                                                                                                                                                                                                                                                                                                                                                                                                                                                                                                                                                                                                                                                                                                                                                                                                                                                                                                                                                                                                                                                                                                                                                                                                                                                                                                                                                                                                                                                                                                                                                                                                                                                                                                                                                                                                                                                                                                                                                                                                                                                                                                                                                                                                                                                                                                                                                                                                                                                                                                                                                                                                                                                                                                                                                                                                                                                               
    OPENED ON UNIT: 1014

 OPENED test001e_UZF_3lay.uzf.cbc.csv
 FILE TYPE:CSV   UNIT 1015   STATUS:REPLACE             
 FORMAT:FORMATTED              ACCESS:SEQUENTIAL          
 ACTION:READWRITE           

    UZF  BUDGET CSV  WILL BE SAVED TO FILE: test001e_UZF_3lay.uzf.cbc.csv                                                                                                                                                                                                                                                                                                                                                                                                                                                                                                                                                                                                                                                                                                                                                                                                                                                                                                                                                                                                                                                                                                                                                                                                                                                                                                                                                                                                                                                                                                                                                                                                                                                                                                                                                                                                                                                                                                                                                                                                                                                                                                                                                                                                                                                                                                                                                                                                                                                                                                                                                                                                                                                                                                                                                                                                                                                                                                                                                                                                                                                                                                                                                                                                                                                                                                                                                                                                                                                                                                                                                                                                                                                                                                                                                                                                                                                                                                                                                                                                                                                                                                                                                                                                                                                                                                                                                                                                                                                                                                                                                                                                                                                                                                                                                                                                                                                                                                                                                                                                                                                                                                                                                                           
    OPENED ON UNIT: 1015

 OPENED test001e_uzf_3lay.uzf_convergence.csv
 FILE TYPE:CSV   UNIT 1016   STATUS:REPLACE             
 FORMAT:FORMATTED              ACCESS:SEQUENTIAL          
 ACTION:READWRITE           

    UZF  PACKAGE_CONVERGENCE  WILL BE SAVED TO FILE: test001e_uzf_3lay.uzf_convergence.csv                                                                                                                                                                                                                                                                                                                                                                                                                                                                                                                                                                                                                                                                                                                                                                                                                                                                                                                                                                                                                                                                                                                                                                                                                                                                                                                                                                                                                                                                                                                                                                                                                                                                                                                                                                                                                                                                                                                                                                                                                                                                                                                                                                                                                                                                                                                                                                                                                                                                                                                                                                                                                                                                                                                                                                                                                                                                                                                                                                                                                                                                                                                                                                                                                                                                                                                                                                                                                                                                                                                                                                                                                                                                                                                                                                                                                                                                                                                                                                                                                                                                                                                                                                                                                                                                                                                                                                                                                                                                                                                                                                                                                                                                                                                                                                                                                                                                                                                                                                                                                                                                                                                                                                   
    OPENED ON UNIT: 1016

 OPENED test001e_UZF_3lay.obs
 FILE TYPE:OBS   UNIT 1017   STATUS:OLD                 
 FORMAT:FORMATTED              ACCESS:SEQUENTIAL          
 ACTION:READ                

    ET WILL BE SIMULATED WITHIN UZ AND GW ZONES, WITH LINEAR GWET IF OPTION NOT SPECIFIED OTHERWISE.
    GROUNDWATER ET FUNCTION WILL BE LINEAR.
    GROUNDWATER DISCHARGE TO LAND SURFACE WILL BE SIMULATED.
 END OF UZF CELLS OPTIONS

 PROCESSING UZF CELLS DIMENSIONS
    NUZFCELLS = 24
    NTRAILWAVES = 10
    NTRAILSETS = 40
 END OF UZF CELLS DIMENSIONS

 PROCESSING UZF CELLS PACKAGEDATA

 UZF CELLS PACKAGE (UZF-1) STATIC UZF CELL DATA
 --------------------------------------------------------------------------------------------------------------------------------------------------------------------------------
   NUMBER   CELLID                 LANDFLAG     IVERTCON     SURFDEP        VKS          THTR         THTS         THTI         EPS      BOUNDNAME                               
 --------------------------------------------------------------------------------------------------------------------------------------------------------------------------------
     1      (1,1,2)                   1            9        1.0000       1.0000       5.00000E-02  0.35000      5.00000E-02  4.0000      UZF01                                   
     2      (1,1,3)                   1            10       1.0000       1.0000       5.00000E-02  0.35000      5.00000E-02  4.0000      UZF02                                   
     3      (1,1,4)                   1            11       1.0000       1.0000       5.00000E-02  0.35000      5.00000E-02  4.0000      UZF03                                   
     4      (1,1,5)                   1            12       1.0000       1.0000       5.00000E-02  0.35000      5.00000E-02  4.0000      UZF04                                   
     5      (1,1,6)                   1            13       1.0000       1.0000       5.00000E-02  0.35000      5.00000E-02  4.0000      UZF05                                   
     6      (1,1,7)                   1            14       1.0000       1.0000       5.00000E-02  0.35000      5.00000E-02  4.0000      UZF06                                   
     7      (1,1,8)                   1            15       1.0000       1.0000       5.00000E-02  0.35000      5.00000E-02  4.0000      UZF07                                   
     8      (1,1,9)                   1            16       1.0000       1.0000       5.00000E-02  0.35000      5.00000E-02  4.0000      UZF08                                   
     9      (2,1,2)                   0            17       1.0000       1.0000       5.00000E-02  0.35000      5.00000E-02  4.0000      UZF08                                   
     10     (2,1,3)                   0            18       1.0000       1.0000       5.00000E-02  0.35000      5.00000E-02  4.0000      UZF10                                   
     11     (2,1,4)                   0            19       1.0000       1.0000       5.00000E-02  0.35000      5.00000E-02  4.0000      UZF11                                   
     12     (2,1,5)                   0            20       1.0000       1.0000       5.00000E-02  0.35000      5.00000E-02  4.0000      UZF12                                   
     13     (2,1,6)                   0            21       1.0000       1.0000       5.00000E-02  0.35000      5.00000E-02  4.0000      UZF13                                   
     14     (2,1,7)                   0            22       1.0000       1.0000       5.00000E-02  0.35000      5.00000E-02  4.0000      UZF14                                   
     15     (2,1,8)                   0            23       1.0000       1.0000       5.00000E-02  0.35000      5.00000E-02  4.0000      UZF15                                   
     16     (2,1,9)                   0            24       1.0000       1.0000       5.00000E-02  0.35000      5.00000E-02  4.0000      UZF16                                   
     17     (3,1,2)                   0            0        1.0000       1.0000       5.00000E-02  0.35000      5.00000E-02  4.0000      UZF17                                   
     18     (3,1,3)                   0            0        1.0000       1.0000       5.00000E-02  0.35000      5.00000E-02  4.0000      UZF18                                   
     19     (3,1,4)                   0            0        1.0000       1.0000       5.00000E-02  0.35000      5.00000E-02  4.0000      UZF19                                   
     20     (3,1,5)                   0            0        1.0000       1.0000       5.00000E-02  0.35000      5.00000E-02  4.0000      UZF20                                   
     21     (3,1,6)                   0            0        1.0000       1.0000       5.00000E-02  0.35000      5.00000E-02  4.0000      UZF21                                   
     22     (3,1,7)                   0            0        1.0000       1.0000       5.00000E-02  0.35000      5.00000E-02  4.0000      UZF22                                   
     23     (3,1,8)                   0            0        1.0000       1.0000       5.00000E-02  0.35000      5.00000E-02  4.0000      UZF23                                   
     24     (3,1,9)                   0            0        1.0000       1.0000       5.00000E-02  0.35000      5.00000E-02  4.0000      UZF24                                   
 --------------------------------------------------------------------------------------------------------------------------------------------------------------------------------



 IC -- INITIAL CONDITIONS PACKAGE, VERSION 8, 3/28/2015 INPUT READ FROM UNIT 1006
 # File generated by Flopy version 3.8.2 on 02/21/2025 at 07:37:26.
 PROCESSING IC OPTIONS
 END OF IC OPTIONS
 PROCESSING GRIDDATA

     INITIAL HEAD =  -25.00000     FOR LAYER 1

     INITIAL HEAD =  -25.00000     FOR LAYER 2

     INITIAL HEAD =  -25.00000     FOR LAYER 3
 END PROCESSING GRIDDATA
 PROCESSING GRIDDATA

                ICELLTYPE = 1 FOR LAYER 1

                ICELLTYPE = 1 FOR LAYER 2

                ICELLTYPE = 1 FOR LAYER 3

                        K =   10.00000     FOR LAYER 1

                        K =   10.00000     FOR LAYER 2

                        K =   10.00000     FOR LAYER 3

                      K33 =   10.00000     FOR LAYER 1

                      K33 =   10.00000     FOR LAYER 2

                      K33 =   10.00000     FOR LAYER 3
 K22 not provided.  Assuming K22 = K.
 END PROCESSING GRIDDATA

 STO -- STORAGE PACKAGE, VERSION 1, 5/19/2014 INPUT READ FROM UNIT 1008


 # File generated by Flopy version 3.8.2 on 02/21/2025 at 07:37:26.
 PROCESSING STORAGE OPTIONS
 END OF STORAGE OPTIONS
 PROCESSING GRIDDATA

                 ICONVERT = 1 FOR LAYER 1

                 ICONVERT = 1 FOR LAYER 2

                 ICONVERT = 1 FOR LAYER 3

         SPECIFIC STORAGE =  0.1000000E-04 FOR LAYER 1

         SPECIFIC STORAGE =  0.1000000E-04 FOR LAYER 2

         SPECIFIC STORAGE =  0.1000000E-04 FOR LAYER 3

           SPECIFIC YIELD =  0.2000000     FOR LAYER 1

           SPECIFIC YIELD =  0.2000000     FOR LAYER 2

           SPECIFIC YIELD =  0.2000000     FOR LAYER 3
 END PROCESSING GRIDDATA

The observation utility is active for "GWF_1"
 # File generated by Flopy version 3.8.2 on 02/21/2025 at 07:37:26.

Processing observation options:


    BINARY GRID INFORMATION WILL BE WRITTEN TO:
      UNIT NUMBER: 1019
      FILE NAME: E:\15_REPOS\00_BETAMI\01_floPy\002_mf6\A1\test001e_UZF_3lay.dis.grb

 OPENED E:\15_REPOS\00_BETAMI\01_floPy\002_mf6\A1\test001e_UZF_3lay.dis.grb
 FILE TYPE:DATA(BINARY)   UNIT 1019   STATUS:REPLACE             
 FORMAT:UNFORMATTED            ACCESS:STREAM              
 ACTION:READWRITE           

      THE LAST TIME STEP WILL BE PRINTED
      THE LAST TIME STEP WILL BE PRINTED
 # File generated by Flopy version 3.8.2 on 02/21/2025 at 07:37:26.

 PROCESSING OC OPTIONS

    BUDGET INFORMATION WILL BE WRITTEN TO:
      UNIT NUMBER: 1020
      FILE NAME: test001e_UZF_3lay.cbc

 OPENED test001e_UZF_3lay.cbc
 FILE TYPE:DATA(BINARY)   UNIT 1020   STATUS:REPLACE             
 FORMAT:UNFORMATTED            ACCESS:STREAM              
 ACTION:READWRITE           


 OPENED test001e_UZF_3lay.cbc.csv
 FILE TYPE:CSV   UNIT 1021   STATUS:REPLACE             
 FORMAT:FORMATTED              ACCESS:SEQUENTIAL          
 ACTION:READWRITE           

    HEAD INFORMATION WILL BE WRITTEN TO:
      UNIT NUMBER: 1022
      FILE NAME: test001e_UZF_3lay.hds

 OPENED test001e_UZF_3lay.hds
 FILE TYPE:DATA(BINARY)   UNIT 1022   STATUS:REPLACE             
 FORMAT:UNFORMATTED            ACCESS:STREAM              
 ACTION:READWRITE           

 END OF OC OPTIONS

The observation utility is active for "UZF-1"
 # File generated by Flopy version 3.8.2 on 02/21/2025 at 07:37:26.

Processing observation options:



start timestep kper="1" kstp="1" mode="normal"


 BEGIN READING OUTPUT CONTROL FOR STRESS PERIOD 1
      ALL TIME STEPS WILL BE SAVED
      ALL TIME STEPS WILL BE SAVED
      ALL TIME STEPS WILL BE PRINTED
      ALL TIME STEPS WILL BE PRINTED

 END READING OUTPUT CONTROL FOR STRESS PERIOD 1


 PROCESSING STORAGE PERIOD DATA
 END PROCESSING STORAGE PERIOD DATA


 STRESS PERIOD 1 IS TRANSIENT

 ---------------------------------------------------
  CHD NO.    LAYER    ROW     COL         HEAD      
 ---------------------------------------------------
     1         3       1       1    -25.0000000     
     2         3       1      10    -25.0000000     
 ---------------------------------------------------



 UZF CELLS PACKAGE (UZF-1) DATA FOR PERIOD      1
 ----------------------------------------------------------------------------------------------------------------------------
   NUMBER   CELLID                   FINF         PET         EXTDEP       EXTWC     BOUNDNAME                               
 ----------------------------------------------------------------------------------------------------------------------------
     1      (1,1,2)               1.00000E-02  1.00000E-06  15.000       7.00000E-02 UZF01                                   
     2      (1,1,3)               1.00000E-02  1.00000E-06  15.000       7.00000E-02 UZF02                                   
     3      (1,1,4)               1.00000E-02  1.00000E-06  15.000       7.00000E-02 UZF03                                   
     4      (1,1,5)               1.00000E-02  1.00000E-06  15.000       7.00000E-02 UZF04                                   
     5      (1,1,6)               1.00000E-02  1.00000E-06  15.000       7.00000E-02 UZF05                                   
     6      (1,1,7)               1.00000E-02  1.00000E-06  15.000       7.00000E-02 UZF06                                   
     7      (1,1,8)               1.00000E-02  1.00000E-06  15.000       7.00000E-02 UZF07                                   
     8      (1,1,9)               1.00000E-02  1.00000E-06  15.000       7.00000E-02 UZF08                                   
     9      (2,1,2)               0.0000       1.00000E-06  15.000       7.00000E-02 UZF08                                   
     10     (2,1,3)               0.0000       1.00000E-06  15.000       7.00000E-02 UZF10                                   
     11     (2,1,4)               0.0000       1.00000E-06  15.000       7.00000E-02 UZF11                                   
     12     (2,1,5)               0.0000       1.00000E-06  15.000       7.00000E-02 UZF12                                   
     13     (2,1,6)               0.0000       1.00000E-06  15.000       7.00000E-02 UZF13                                   
     14     (2,1,7)               0.0000       1.00000E-06  15.000       7.00000E-02 UZF14                                   
     15     (2,1,8)               0.0000       1.00000E-06  15.000       7.00000E-02 UZF15                                   
     16     (2,1,9)               0.0000       1.00000E-06  15.000       7.00000E-02 UZF16                                   
 ----------------------------------------------------------------------------------------------------------------------------


 UBDSV1 SAVING     FLOW-JA-FACE ON UNIT   1020 AT TIME STEP      1, STRESS PERIOD      1
 UBDSV06 SAVING     FLOW-JA-FACE IN MODEL GWF_1            PACKAGE UZF-1           CONNECTED TO MODEL GWF_1            PACKAGE UZF-1            ON UNIT   1014 AT TIME STEP      1, STRESS PERIOD      1
 UBDSV06 SAVING              GWF IN MODEL GWF_1            PACKAGE UZF-1           CONNECTED TO MODEL GWF_1            PACKAGE GWF_1            ON UNIT   1014 AT TIME STEP      1, STRESS PERIOD      1
 UBDSV06 SAVING     INFILTRATION IN MODEL GWF_1            PACKAGE UZF-1           CONNECTED TO MODEL GWF_1            PACKAGE UZF-1            ON UNIT   1014 AT TIME STEP      1, STRESS PERIOD      1
 UBDSV06 SAVING          REJ-INF IN MODEL GWF_1            PACKAGE UZF-1           CONNECTED TO MODEL GWF_1            PACKAGE UZF-1            ON UNIT   1014 AT TIME STEP      1, STRESS PERIOD      1
 UBDSV06 SAVING             UZET IN MODEL GWF_1            PACKAGE UZF-1           CONNECTED TO MODEL GWF_1            PACKAGE UZF-1            ON UNIT   1014 AT TIME STEP      1, STRESS PERIOD      1
 UBDSV06 SAVING          STORAGE IN MODEL GWF_1            PACKAGE UZF-1           CONNECTED TO MODEL GWF_1            PACKAGE UZF-1            ON UNIT   1014 AT TIME STEP      1, STRESS PERIOD      1

 CHD PACKAGE (CHD-1) FLOW RATES   PERIOD      1   STEP        1
 -----------------------------------------------
   NUMBER   CELLID                    RATE      
 -----------------------------------------------
     1      (3,1,1)               0.0000000     
     2      (3,1,10)              0.0000000     
 -----------------------------------------------




 UZF-GWRCH PACKAGE (UZF-1) FLOW RATES   PERIOD      1   STEP        1
 ----------------------------------------------------------------------------------------
   NUMBER   CELLID                    RATE       NAME                                    
 ----------------------------------------------------------------------------------------
     1      (1,1,2)               0.0000000      UZF01                                   
     2      (1,1,3)               0.0000000      UZF02                                   
     3      (1,1,4)               0.0000000      UZF03                                   
     4      (1,1,5)               0.0000000      UZF04                                   
     5      (1,1,6)               0.0000000      UZF05                                   
     6      (1,1,7)               0.0000000      UZF06                                   
     7      (1,1,8)               0.0000000      UZF07                                   
     8      (1,1,9)               0.0000000      UZF08                                   
     9      (2,1,2)               0.0000000      UZF08                                   
     10     (2,1,3)               0.0000000      UZF10                                   
     11     (2,1,4)               0.0000000      UZF11                                   
     12     (2,1,5)               0.0000000      UZF12                                   
     13     (2,1,6)               0.0000000      UZF13                                   
     14     (2,1,7)               0.0000000      UZF14                                   
     15     (2,1,8)               0.0000000      UZF15                                   
     16     (2,1,9)               0.0000000      UZF16                                   
     17     (3,1,2)               0.0000000      UZF17                                   
     18     (3,1,3)               0.0000000      UZF18                                   
     19     (3,1,4)               0.0000000      UZF19                                   
     20     (3,1,5)               0.0000000      UZF20                                   
     21     (3,1,6)               0.0000000      UZF21                                   
     22     (3,1,7)               0.0000000      UZF22                                   
     23     (3,1,8)               0.0000000      UZF23                                   
     24     (3,1,9)               0.0000000      UZF24                                   
 ----------------------------------------------------------------------------------------




 UZF-GWD PACKAGE (UZF-1) FLOW RATES   PERIOD      1   STEP        1
 ----------------------------------------------------------------------------------------
   NUMBER   CELLID                    RATE       NAME                                    
 ----------------------------------------------------------------------------------------
     1      (1,1,2)               0.0000000      UZF01                                   
     2      (1,1,3)               0.0000000      UZF02                                   
     3      (1,1,4)               0.0000000      UZF03                                   
     4      (1,1,5)               0.0000000      UZF04                                   
     5      (1,1,6)               0.0000000      UZF05                                   
     6      (1,1,7)               0.0000000      UZF06                                   
     7      (1,1,8)               0.0000000      UZF07                                   
     8      (1,1,9)               0.0000000      UZF08                                   
     9      (2,1,2)               0.0000000      UZF08                                   
     10     (2,1,3)               0.0000000      UZF10                                   
     11     (2,1,4)               0.0000000      UZF11                                   
     12     (2,1,5)               0.0000000      UZF12                                   
     13     (2,1,6)               0.0000000      UZF13                                   
     14     (2,1,7)               0.0000000      UZF14                                   
     15     (2,1,8)               0.0000000      UZF15                                   
     16     (2,1,9)               0.0000000      UZF16                                   
     17     (3,1,2)               0.0000000      UZF17                                   
     18     (3,1,3)               0.0000000      UZF18                                   
     19     (3,1,4)               0.0000000      UZF19                                   
     20     (3,1,5)               0.0000000      UZF20                                   
     21     (3,1,6)               0.0000000      UZF21                                   
     22     (3,1,7)               0.0000000      UZF22                                   
     23     (3,1,8)               0.0000000      UZF23                                   
     24     (3,1,9)               0.0000000      UZF24                                   
 ----------------------------------------------------------------------------------------




 UZF-GWET PACKAGE (UZF-1) FLOW RATES   PERIOD      1   STEP        1
 ----------------------------------------------------------------------------------------
   NUMBER   CELLID                    RATE       NAME                                    
 ----------------------------------------------------------------------------------------
     1      (1,1,2)               0.0000000      UZF01                                   
     2      (1,1,3)               0.0000000      UZF02                                   
     3      (1,1,4)               0.0000000      UZF03                                   
     4      (1,1,5)               0.0000000      UZF04                                   
     5      (1,1,6)               0.0000000      UZF05                                   
     6      (1,1,7)               0.0000000      UZF06                                   
     7      (1,1,8)               0.0000000      UZF07                                   
     8      (1,1,9)               0.0000000      UZF08                                   
     9      (2,1,2)               0.0000000      UZF08                                   
     10     (2,1,3)               0.0000000      UZF10                                   
     11     (2,1,4)               0.0000000      UZF11                                   
     12     (2,1,5)               0.0000000      UZF12                                   
     13     (2,1,6)               0.0000000      UZF13                                   
     14     (2,1,7)               0.0000000      UZF14                                   
     15     (2,1,8)               0.0000000      UZF15                                   
     16     (2,1,9)               0.0000000      UZF16                                   
     17     (3,1,2)               0.0000000      UZF17                                   
     18     (3,1,3)               0.0000000      UZF18                                   
     19     (3,1,4)               0.0000000      UZF19                                   
     20     (3,1,5)               0.0000000      UZF20                                   
     21     (3,1,6)               0.0000000      UZF21                                   
     22     (3,1,7)               0.0000000      UZF22                                   
     23     (3,1,8)               0.0000000      UZF23                                   
     24     (3,1,9)               0.0000000      UZF24                                   
 ----------------------------------------------------------------------------------------




 UZF-1 PACKAGE - SUMMARY OF FLOWS FOR EACH CONTROL VOLUME   PERIOD      1   STEP        1
 ----------------------------------------------------------------------------------------------------------------------------------------------------
                                                                                                                                           PERCENT   
   NUMBER   CELLID                  INFLOW      OUTFLOW        GWF      INFILTRATION   REJ INF        UZET       STORAGE      IN - OUT    DIFFERENCE 
 ----------------------------------------------------------------------------------------------------------------------------------------------------
     1      (1,1,2)               0.0000       0.0000       0.0000       1000.0       0.0000      -1.40546E-03 -1000.00      3.41061E-13  3.41061E-14
     2      (1,1,3)               0.0000       0.0000       0.0000       1000.0       0.0000      -1.40546E-03 -1000.00      3.41061E-13  3.41061E-14
     3      (1,1,4)               0.0000       0.0000       0.0000       1000.0       0.0000      -1.40546E-03 -1000.00      3.41061E-13  3.41061E-14
     4      (1,1,5)               0.0000       0.0000       0.0000       1000.0       0.0000      -1.40546E-03 -1000.00      3.41061E-13  3.41061E-14
     5      (1,1,6)               0.0000       0.0000       0.0000       1000.0       0.0000      -1.40546E-03 -1000.00      3.41061E-13  3.41061E-14
     6      (1,1,7)               0.0000       0.0000       0.0000       1000.0       0.0000      -1.40546E-03 -1000.00      3.41061E-13  3.41061E-14
     7      (1,1,8)               0.0000       0.0000       0.0000       1000.0       0.0000      -1.40546E-03 -1000.00      3.41061E-13  3.41061E-14
     8      (1,1,9)               0.0000       0.0000       0.0000       1000.0       0.0000      -1.40546E-03 -1000.00      3.41061E-13  3.41061E-14
     9      (2,1,2)               0.0000       0.0000       0.0000       0.0000       0.0000       0.0000       0.0000       0.0000       0.0000     
     10     (2,1,3)               0.0000       0.0000       0.0000       0.0000       0.0000       0.0000       0.0000       0.0000       0.0000     
     11     (2,1,4)               0.0000       0.0000       0.0000       0.0000       0.0000       0.0000       0.0000       0.0000       0.0000     
     12     (2,1,5)               0.0000       0.0000       0.0000       0.0000       0.0000       0.0000       0.0000       0.0000       0.0000     
     13     (2,1,6)               0.0000       0.0000       0.0000       0.0000       0.0000       0.0000       0.0000       0.0000       0.0000     
     14     (2,1,7)               0.0000       0.0000       0.0000       0.0000       0.0000       0.0000       0.0000       0.0000       0.0000     
     15     (2,1,8)               0.0000       0.0000       0.0000       0.0000       0.0000       0.0000       0.0000       0.0000       0.0000     
     16     (2,1,9)               0.0000       0.0000       0.0000       0.0000       0.0000       0.0000       0.0000       0.0000       0.0000     
     17     (3,1,2)               0.0000       0.0000       0.0000       0.0000       0.0000       0.0000       0.0000       0.0000       0.0000     
     18     (3,1,3)               0.0000       0.0000       0.0000       0.0000       0.0000       0.0000       0.0000       0.0000       0.0000     
     19     (3,1,4)               0.0000       0.0000       0.0000       0.0000       0.0000       0.0000       0.0000       0.0000       0.0000     
     20     (3,1,5)               0.0000       0.0000       0.0000       0.0000       0.0000       0.0000       0.0000       0.0000       0.0000     
     21     (3,1,6)               0.0000       0.0000       0.0000       0.0000       0.0000       0.0000       0.0000       0.0000       0.0000     
     22     (3,1,7)               0.0000       0.0000       0.0000       0.0000       0.0000       0.0000       0.0000       0.0000       0.0000     
     23     (3,1,8)               0.0000       0.0000       0.0000       0.0000       0.0000       0.0000       0.0000       0.0000       0.0000     
     24     (3,1,9)               0.0000       0.0000       0.0000       0.0000       0.0000       0.0000       0.0000       0.0000       0.0000     
 ----------------------------------------------------------------------------------------------------------------------------------------------------


1
  HEAD IN LAYER   1 AT END OF TIME STEP   1 IN STRESS PERIOD    1
  ---------------------------------------------------------------------------

            1           2           3           4           5           6           7           8           9          10
 ........................................................................................................................
   1   -25.00      -25.00      -25.00      -25.00      -25.00      -25.00      -25.00      -25.00      -25.00      -25.00    
1
  HEAD IN LAYER   2 AT END OF TIME STEP   1 IN STRESS PERIOD    1
  ---------------------------------------------------------------------------

            1           2           3           4           5           6           7           8           9          10
 ........................................................................................................................
   1   -25.00      -25.00      -25.00      -25.00      -25.00      -25.00      -25.00      -25.00      -25.00      -25.00    
1
  HEAD IN LAYER   3 AT END OF TIME STEP   1 IN STRESS PERIOD    1
  ---------------------------------------------------------------------------

            1           2           3           4           5           6           7           8           9          10
 ........................................................................................................................
   1   -25.00      -25.00      -25.00      -25.00      -25.00      -25.00      -25.00      -25.00      -25.00      -25.00    

 HEAD WILL BE SAVED ON UNIT 1022 AT END OF TIME STEP    1, STRESS PERIOD    1


  UZF-1 BUDGET FOR ENTIRE MODEL AT END OF TIME STEP    1, STRESS PERIOD   1
  ------------------------------------------------------------------------------

     CUMULATIVE UZF-1      L**3       RATES FOR THIS TIME STEP      L**3/T
     ------------------                 ------------------------

           IN:                                      IN:
           ---                                      ---
                 GWF =           0.0000                   GWF =           0.0000
        INFILTRATION =       16000.0000          INFILTRATION =        8000.0000
             REJ-INF =           0.0000               REJ-INF =           0.0000
                UZET =           0.0000                  UZET =           0.0000
             STORAGE =           0.0000               STORAGE =           0.0000

            TOTAL IN =       16000.0000              TOTAL IN =        8000.0000

          OUT:                                     OUT:
          ----                                     ----
                 GWF =           0.0000                   GWF =           0.0000
        INFILTRATION =           0.0000          INFILTRATION =           0.0000
             REJ-INF =           0.0000               REJ-INF =           0.0000
                UZET =       2.2487E-02                  UZET =       1.1244E-02
             STORAGE =       15999.9775               STORAGE =        7999.9888

           TOTAL OUT =       16000.0000             TOTAL OUT =        8000.0000

            IN - OUT =       5.4570E-12              IN - OUT =       2.7285E-12

 PERCENT DISCREPANCY =           0.00     PERCENT DISCREPANCY =           0.00



  VOLUME BUDGET FOR ENTIRE MODEL AT END OF TIME STEP    1, STRESS PERIOD   1
  ---------------------------------------------------------------------------------------------------

     CUMULATIVE VOLUME      L**3       RATES FOR THIS TIME STEP      L**3/T          PACKAGE NAME    
     ------------------                 ------------------------                     ----------------

           IN:                                      IN:
           ---                                      ---
              STO-SS =           0.0000                STO-SS =           0.0000     STORAGE         
              STO-SY =           0.0000                STO-SY =           0.0000     STORAGE         
                 CHD =           0.0000                   CHD =           0.0000     CHD-1           
           UZF-GWRCH =           0.0000             UZF-GWRCH =           0.0000     UZF-1           
             UZF-GWD =           0.0000               UZF-GWD =           0.0000     UZF-1           
            UZF-GWET =           0.0000              UZF-GWET =           0.0000     UZF-1           

            TOTAL IN =           0.0000              TOTAL IN =           0.0000

          OUT:                                     OUT:
          ----                                     ----
              STO-SS =           0.0000                STO-SS =           0.0000     STORAGE         
              STO-SY =           0.0000                STO-SY =           0.0000     STORAGE         
                 CHD =           0.0000                   CHD =           0.0000     CHD-1           
           UZF-GWRCH =           0.0000             UZF-GWRCH =           0.0000     UZF-1           
             UZF-GWD =           0.0000               UZF-GWD =           0.0000     UZF-1           
            UZF-GWET =           0.0000              UZF-GWET =           0.0000     UZF-1           

           TOTAL OUT =           0.0000             TOTAL OUT =           0.0000

            IN - OUT =           0.0000              IN - OUT =           0.0000

 PERCENT DISCREPANCY =           0.00     PERCENT DISCREPANCY =           0.00




         TIME SUMMARY AT END OF TIME STEP    1 IN STRESS PERIOD    1
                    SECONDS     MINUTES      HOURS       DAYS        YEARS
                    -----------------------------------------------------------
   TIME STEP LENGTH 1.72800E+05  2880.0      48.000      2.0000     5.47570E-03
 STRESS PERIOD TIME 1.72800E+05  2880.0      48.000      2.0000     5.47570E-03
         TOTAL TIME 1.72800E+05  2880.0      48.000      2.0000     5.47570E-03


end timestep


start timestep kper="1" kstp="2" mode="normal"

 UBDSV1 SAVING     FLOW-JA-FACE ON UNIT   1020 AT TIME STEP      2, STRESS PERIOD      1
 UBDSV06 SAVING     FLOW-JA-FACE IN MODEL GWF_1            PACKAGE UZF-1           CONNECTED TO MODEL GWF_1            PACKAGE UZF-1            ON UNIT   1014 AT TIME STEP      2, STRESS PERIOD      1
 UBDSV06 SAVING              GWF IN MODEL GWF_1            PACKAGE UZF-1           CONNECTED TO MODEL GWF_1            PACKAGE GWF_1            ON UNIT   1014 AT TIME STEP      2, STRESS PERIOD      1
 UBDSV06 SAVING     INFILTRATION IN MODEL GWF_1            PACKAGE UZF-1           CONNECTED TO MODEL GWF_1            PACKAGE UZF-1            ON UNIT   1014 AT TIME STEP      2, STRESS PERIOD      1
 UBDSV06 SAVING          REJ-INF IN MODEL GWF_1            PACKAGE UZF-1           CONNECTED TO MODEL GWF_1            PACKAGE UZF-1            ON UNIT   1014 AT TIME STEP      2, STRESS PERIOD      1
 UBDSV06 SAVING             UZET IN MODEL GWF_1            PACKAGE UZF-1           CONNECTED TO MODEL GWF_1            PACKAGE UZF-1            ON UNIT   1014 AT TIME STEP      2, STRESS PERIOD      1
 UBDSV06 SAVING          STORAGE IN MODEL GWF_1            PACKAGE UZF-1           CONNECTED TO MODEL GWF_1            PACKAGE UZF-1            ON UNIT   1014 AT TIME STEP      2, STRESS PERIOD      1

 CHD PACKAGE (CHD-1) FLOW RATES   PERIOD      1   STEP        2
 -----------------------------------------------
   NUMBER   CELLID                    RATE      
 -----------------------------------------------
     1      (3,1,1)               0.0000000     
     2      (3,1,10)              0.0000000     
 -----------------------------------------------




 UZF-GWRCH PACKAGE (UZF-1) FLOW RATES   PERIOD      1   STEP        2
 ----------------------------------------------------------------------------------------
   NUMBER   CELLID                    RATE       NAME                                    
 ----------------------------------------------------------------------------------------
     1      (1,1,2)               0.0000000      UZF01                                   
     2      (1,1,3)               0.0000000      UZF02                                   
     3      (1,1,4)               0.0000000      UZF03                                   
     4      (1,1,5)               0.0000000      UZF04                                   
     5      (1,1,6)               0.0000000      UZF05                                   
     6      (1,1,7)               0.0000000      UZF06                                   
     7      (1,1,8)               0.0000000      UZF07                                   
     8      (1,1,9)               0.0000000      UZF08                                   
     9      (2,1,2)               0.0000000      UZF08                                   
     10     (2,1,3)               0.0000000      UZF10                                   
     11     (2,1,4)               0.0000000      UZF11                                   
     12     (2,1,5)               0.0000000      UZF12                                   
     13     (2,1,6)               0.0000000      UZF13                                   
     14     (2,1,7)               0.0000000      UZF14                                   
     15     (2,1,8)               0.0000000      UZF15                                   
     16     (2,1,9)               0.0000000      UZF16                                   
     17     (3,1,2)               0.0000000      UZF17                                   
     18     (3,1,3)               0.0000000      UZF18                                   
     19     (3,1,4)               0.0000000      UZF19                                   
     20     (3,1,5)               0.0000000      UZF20                                   
     21     (3,1,6)               0.0000000      UZF21                                   
     22     (3,1,7)               0.0000000      UZF22                                   
     23     (3,1,8)               0.0000000      UZF23                                   
     24     (3,1,9)               0.0000000      UZF24                                   
 ----------------------------------------------------------------------------------------




 UZF-GWD PACKAGE (UZF-1) FLOW RATES   PERIOD      1   STEP        2
 ----------------------------------------------------------------------------------------
   NUMBER   CELLID                    RATE       NAME                                    
 ----------------------------------------------------------------------------------------
     1      (1,1,2)               0.0000000      UZF01                                   
     2      (1,1,3)               0.0000000      UZF02                                   
     3      (1,1,4)               0.0000000      UZF03                                   
     4      (1,1,5)               0.0000000      UZF04                                   
     5      (1,1,6)               0.0000000      UZF05                                   
     6      (1,1,7)               0.0000000      UZF06                                   
     7      (1,1,8)               0.0000000      UZF07                                   
     8      (1,1,9)               0.0000000      UZF08                                   
     9      (2,1,2)               0.0000000      UZF08                                   
     10     (2,1,3)               0.0000000      UZF10                                   
     11     (2,1,4)               0.0000000      UZF11                                   
     12     (2,1,5)               0.0000000      UZF12                                   
     13     (2,1,6)               0.0000000      UZF13                                   
     14     (2,1,7)               0.0000000      UZF14                                   
     15     (2,1,8)               0.0000000      UZF15                                   
     16     (2,1,9)               0.0000000      UZF16                                   
     17     (3,1,2)               0.0000000      UZF17                                   
     18     (3,1,3)               0.0000000      UZF18                                   
     19     (3,1,4)               0.0000000      UZF19                                   
     20     (3,1,5)               0.0000000      UZF20                                   
     21     (3,1,6)               0.0000000      UZF21                                   
     22     (3,1,7)               0.0000000      UZF22                                   
     23     (3,1,8)               0.0000000      UZF23                                   
     24     (3,1,9)               0.0000000      UZF24                                   
 ----------------------------------------------------------------------------------------




 UZF-GWET PACKAGE (UZF-1) FLOW RATES   PERIOD      1   STEP        2
 ----------------------------------------------------------------------------------------
   NUMBER   CELLID                    RATE       NAME                                    
 ----------------------------------------------------------------------------------------
     1      (1,1,2)               0.0000000      UZF01                                   
     2      (1,1,3)               0.0000000      UZF02                                   
     3      (1,1,4)               0.0000000      UZF03                                   
     4      (1,1,5)               0.0000000      UZF04                                   
     5      (1,1,6)               0.0000000      UZF05                                   
     6      (1,1,7)               0.0000000      UZF06                                   
     7      (1,1,8)               0.0000000      UZF07                                   
     8      (1,1,9)               0.0000000      UZF08                                   
     9      (2,1,2)               0.0000000      UZF08                                   
     10     (2,1,3)               0.0000000      UZF10                                   
     11     (2,1,4)               0.0000000      UZF11                                   
     12     (2,1,5)               0.0000000      UZF12                                   
     13     (2,1,6)               0.0000000      UZF13                                   
     14     (2,1,7)               0.0000000      UZF14                                   
     15     (2,1,8)               0.0000000      UZF15                                   
     16     (2,1,9)               0.0000000      UZF16                                   
     17     (3,1,2)               0.0000000      UZF17                                   
     18     (3,1,3)               0.0000000      UZF18                                   
     19     (3,1,4)               0.0000000      UZF19                                   
     20     (3,1,5)               0.0000000      UZF20                                   
     21     (3,1,6)               0.0000000      UZF21                                   
     22     (3,1,7)               0.0000000      UZF22                                   
     23     (3,1,8)               0.0000000      UZF23                                   
     24     (3,1,9)               0.0000000      UZF24                                   
 ----------------------------------------------------------------------------------------




 UZF-1 PACKAGE - SUMMARY OF FLOWS FOR EACH CONTROL VOLUME   PERIOD      1   STEP        2
 ----------------------------------------------------------------------------------------------------------------------------------------------------
                                                                                                                                           PERCENT   
   NUMBER   CELLID                  INFLOW      OUTFLOW        GWF      INFILTRATION   REJ INF        UZET       STORAGE      IN - OUT    DIFFERENCE 
 ----------------------------------------------------------------------------------------------------------------------------------------------------
     1      (1,1,2)               0.0000       0.0000       0.0000       1000.0       0.0000      -2.81091E-03 -1000.00     -2.27374E-13 -2.27374E-14
     2      (1,1,3)               0.0000       0.0000       0.0000       1000.0       0.0000      -2.81091E-03 -1000.00     -2.27374E-13 -2.27374E-14
     3      (1,1,4)               0.0000       0.0000       0.0000       1000.0       0.0000      -2.81091E-03 -1000.00     -2.27374E-13 -2.27374E-14
     4      (1,1,5)               0.0000       0.0000       0.0000       1000.0       0.0000      -2.81091E-03 -1000.00     -2.27374E-13 -2.27374E-14
     5      (1,1,6)               0.0000       0.0000       0.0000       1000.0       0.0000      -2.81091E-03 -1000.00     -2.27374E-13 -2.27374E-14
     6      (1,1,7)               0.0000       0.0000       0.0000       1000.0       0.0000      -2.81091E-03 -1000.00     -2.27374E-13 -2.27374E-14
     7      (1,1,8)               0.0000       0.0000       0.0000       1000.0       0.0000      -2.81091E-03 -1000.00     -2.27374E-13 -2.27374E-14
     8      (1,1,9)               0.0000       0.0000       0.0000       1000.0       0.0000      -2.81091E-03 -1000.00     -2.27374E-13 -2.27374E-14
     9      (2,1,2)               0.0000       0.0000       0.0000       0.0000       0.0000       0.0000       0.0000       0.0000       0.0000     
     10     (2,1,3)               0.0000       0.0000       0.0000       0.0000       0.0000       0.0000       0.0000       0.0000       0.0000     
     11     (2,1,4)               0.0000       0.0000       0.0000       0.0000       0.0000       0.0000       0.0000       0.0000       0.0000     
     12     (2,1,5)               0.0000       0.0000       0.0000       0.0000       0.0000       0.0000       0.0000       0.0000       0.0000     
     13     (2,1,6)               0.0000       0.0000       0.0000       0.0000       0.0000       0.0000       0.0000       0.0000       0.0000     
     14     (2,1,7)               0.0000       0.0000       0.0000       0.0000       0.0000       0.0000       0.0000       0.0000       0.0000     
     15     (2,1,8)               0.0000       0.0000       0.0000       0.0000       0.0000       0.0000       0.0000       0.0000       0.0000     
     16     (2,1,9)               0.0000       0.0000       0.0000       0.0000       0.0000       0.0000       0.0000       0.0000       0.0000     
     17     (3,1,2)               0.0000       0.0000       0.0000       0.0000       0.0000       0.0000       0.0000       0.0000       0.0000     
     18     (3,1,3)               0.0000       0.0000       0.0000       0.0000       0.0000       0.0000       0.0000       0.0000       0.0000     
     19     (3,1,4)               0.0000       0.0000       0.0000       0.0000       0.0000       0.0000       0.0000       0.0000       0.0000     
     20     (3,1,5)               0.0000       0.0000       0.0000       0.0000       0.0000       0.0000       0.0000       0.0000       0.0000     
     21     (3,1,6)               0.0000       0.0000       0.0000       0.0000       0.0000       0.0000       0.0000       0.0000       0.0000     
     22     (3,1,7)               0.0000       0.0000       0.0000       0.0000       0.0000       0.0000       0.0000       0.0000       0.0000     
     23     (3,1,8)               0.0000       0.0000       0.0000       0.0000       0.0000       0.0000       0.0000       0.0000       0.0000     
     24     (3,1,9)               0.0000       0.0000       0.0000       0.0000       0.0000       0.0000       0.0000       0.0000       0.0000     
 ----------------------------------------------------------------------------------------------------------------------------------------------------


1
  HEAD IN LAYER   1 AT END OF TIME STEP   2 IN STRESS PERIOD    1
  ---------------------------------------------------------------------------

            1           2           3           4           5           6           7           8           9          10
 ........................................................................................................................
   1   -25.00      -25.00      -25.00      -25.00      -25.00      -25.00      -25.00      -25.00      -25.00      -25.00    
1
  HEAD IN LAYER   2 AT END OF TIME STEP   2 IN STRESS PERIOD    1
  ---------------------------------------------------------------------------

            1           2           3           4           5           6           7           8           9          10
 ........................................................................................................................
   1   -25.00      -25.00      -25.00      -25.00      -25.00      -25.00      -25.00      -25.00      -25.00      -25.00    
1
  HEAD IN LAYER   3 AT END OF TIME STEP   2 IN STRESS PERIOD    1
  ---------------------------------------------------------------------------

            1           2           3           4           5           6           7           8           9          10
 ........................................................................................................................
   1   -25.00      -25.00      -25.00      -25.00      -25.00      -25.00      -25.00      -25.00      -25.00      -25.00    

 HEAD WILL BE SAVED ON UNIT 1022 AT END OF TIME STEP    2, STRESS PERIOD    1


  UZF-1 BUDGET FOR ENTIRE MODEL AT END OF TIME STEP    2, STRESS PERIOD   1
  ------------------------------------------------------------------------------

     CUMULATIVE UZF-1      L**3       RATES FOR THIS TIME STEP      L**3/T
     ------------------                 ------------------------

           IN:                                      IN:
           ---                                      ---
                 GWF =           0.0000                   GWF =           0.0000
        INFILTRATION =       32000.0000          INFILTRATION =        8000.0000
             REJ-INF =           0.0000               REJ-INF =           0.0000
                UZET =           0.0000                  UZET =           0.0000
             STORAGE =           0.0000               STORAGE =           0.0000

            TOTAL IN =       32000.0000              TOTAL IN =        8000.0000

          OUT:                                     OUT:
          ----                                     ----
                 GWF =           0.0000                   GWF =           0.0000
        INFILTRATION =           0.0000          INFILTRATION =           0.0000
             REJ-INF =           0.0000               REJ-INF =           0.0000
                UZET =       6.7462E-02                  UZET =       2.2487E-02
             STORAGE =       31999.9325               STORAGE =        7999.9775

           TOTAL OUT =       32000.0000             TOTAL OUT =        8000.0000

            IN - OUT =       3.6380E-12              IN - OUT =      -1.8190E-12

 PERCENT DISCREPANCY =           0.00     PERCENT DISCREPANCY =          -0.00



  VOLUME BUDGET FOR ENTIRE MODEL AT END OF TIME STEP    2, STRESS PERIOD   1
  ---------------------------------------------------------------------------------------------------

     CUMULATIVE VOLUME      L**3       RATES FOR THIS TIME STEP      L**3/T          PACKAGE NAME    
     ------------------                 ------------------------                     ----------------

           IN:                                      IN:
           ---                                      ---
              STO-SS =           0.0000                STO-SS =           0.0000     STORAGE         
              STO-SY =           0.0000                STO-SY =           0.0000     STORAGE         
                 CHD =           0.0000                   CHD =           0.0000     CHD-1           
           UZF-GWRCH =           0.0000             UZF-GWRCH =           0.0000     UZF-1           
             UZF-GWD =           0.0000               UZF-GWD =           0.0000     UZF-1           
            UZF-GWET =           0.0000              UZF-GWET =           0.0000     UZF-1           

            TOTAL IN =           0.0000              TOTAL IN =           0.0000

          OUT:                                     OUT:
          ----                                     ----
              STO-SS =           0.0000                STO-SS =           0.0000     STORAGE         
              STO-SY =           0.0000                STO-SY =           0.0000     STORAGE         
                 CHD =           0.0000                   CHD =           0.0000     CHD-1           
           UZF-GWRCH =           0.0000             UZF-GWRCH =           0.0000     UZF-1           
             UZF-GWD =           0.0000               UZF-GWD =           0.0000     UZF-1           
            UZF-GWET =           0.0000              UZF-GWET =           0.0000     UZF-1           

           TOTAL OUT =           0.0000             TOTAL OUT =           0.0000

            IN - OUT =           0.0000              IN - OUT =           0.0000

 PERCENT DISCREPANCY =           0.00     PERCENT DISCREPANCY =           0.00




         TIME SUMMARY AT END OF TIME STEP    2 IN STRESS PERIOD    1
                    SECONDS     MINUTES      HOURS       DAYS        YEARS
                    -----------------------------------------------------------
   TIME STEP LENGTH 1.72800E+05  2880.0      48.000      2.0000     5.47570E-03
 STRESS PERIOD TIME 3.45600E+05  5760.0      96.000      4.0000     1.09514E-02
         TOTAL TIME 3.45600E+05  5760.0      96.000      4.0000     1.09514E-02


end timestep


start timestep kper="1" kstp="3" mode="normal"

 UBDSV1 SAVING     FLOW-JA-FACE ON UNIT   1020 AT TIME STEP      3, STRESS PERIOD      1
 UBDSV06 SAVING     FLOW-JA-FACE IN MODEL GWF_1            PACKAGE UZF-1           CONNECTED TO MODEL GWF_1            PACKAGE UZF-1            ON UNIT   1014 AT TIME STEP      3, STRESS PERIOD      1
 UBDSV06 SAVING              GWF IN MODEL GWF_1            PACKAGE UZF-1           CONNECTED TO MODEL GWF_1            PACKAGE GWF_1            ON UNIT   1014 AT TIME STEP      3, STRESS PERIOD      1
 UBDSV06 SAVING     INFILTRATION IN MODEL GWF_1            PACKAGE UZF-1           CONNECTED TO MODEL GWF_1            PACKAGE UZF-1            ON UNIT   1014 AT TIME STEP      3, STRESS PERIOD      1
 UBDSV06 SAVING          REJ-INF IN MODEL GWF_1            PACKAGE UZF-1           CONNECTED TO MODEL GWF_1            PACKAGE UZF-1            ON UNIT   1014 AT TIME STEP      3, STRESS PERIOD      1
 UBDSV06 SAVING             UZET IN MODEL GWF_1            PACKAGE UZF-1           CONNECTED TO MODEL GWF_1            PACKAGE UZF-1            ON UNIT   1014 AT TIME STEP      3, STRESS PERIOD      1
 UBDSV06 SAVING          STORAGE IN MODEL GWF_1            PACKAGE UZF-1           CONNECTED TO MODEL GWF_1            PACKAGE UZF-1            ON UNIT   1014 AT TIME STEP      3, STRESS PERIOD      1

 CHD PACKAGE (CHD-1) FLOW RATES   PERIOD      1   STEP        3
 -----------------------------------------------
   NUMBER   CELLID                    RATE      
 -----------------------------------------------
     1      (3,1,1)               0.0000000     
     2      (3,1,10)              0.0000000     
 -----------------------------------------------




 UZF-GWRCH PACKAGE (UZF-1) FLOW RATES   PERIOD      1   STEP        3
 ----------------------------------------------------------------------------------------
   NUMBER   CELLID                    RATE       NAME                                    
 ----------------------------------------------------------------------------------------
     1      (1,1,2)               0.0000000      UZF01                                   
     2      (1,1,3)               0.0000000      UZF02                                   
     3      (1,1,4)               0.0000000      UZF03                                   
     4      (1,1,5)               0.0000000      UZF04                                   
     5      (1,1,6)               0.0000000      UZF05                                   
     6      (1,1,7)               0.0000000      UZF06                                   
     7      (1,1,8)               0.0000000      UZF07                                   
     8      (1,1,9)               0.0000000      UZF08                                   
     9      (2,1,2)               0.0000000      UZF08                                   
     10     (2,1,3)               0.0000000      UZF10                                   
     11     (2,1,4)               0.0000000      UZF11                                   
     12     (2,1,5)               0.0000000      UZF12                                   
     13     (2,1,6)               0.0000000      UZF13                                   
     14     (2,1,7)               0.0000000      UZF14                                   
     15     (2,1,8)               0.0000000      UZF15                                   
     16     (2,1,9)               0.0000000      UZF16                                   
     17     (3,1,2)               0.0000000      UZF17                                   
     18     (3,1,3)               0.0000000      UZF18                                   
     19     (3,1,4)               0.0000000      UZF19                                   
     20     (3,1,5)               0.0000000      UZF20                                   
     21     (3,1,6)               0.0000000      UZF21                                   
     22     (3,1,7)               0.0000000      UZF22                                   
     23     (3,1,8)               0.0000000      UZF23                                   
     24     (3,1,9)               0.0000000      UZF24                                   
 ----------------------------------------------------------------------------------------




 UZF-GWD PACKAGE (UZF-1) FLOW RATES   PERIOD      1   STEP        3
 ----------------------------------------------------------------------------------------
   NUMBER   CELLID                    RATE       NAME                                    
 ----------------------------------------------------------------------------------------
     1      (1,1,2)               0.0000000      UZF01                                   
     2      (1,1,3)               0.0000000      UZF02                                   
     3      (1,1,4)               0.0000000      UZF03                                   
     4      (1,1,5)               0.0000000      UZF04                                   
     5      (1,1,6)               0.0000000      UZF05                                   
     6      (1,1,7)               0.0000000      UZF06                                   
     7      (1,1,8)               0.0000000      UZF07                                   
     8      (1,1,9)               0.0000000      UZF08                                   
     9      (2,1,2)               0.0000000      UZF08                                   
     10     (2,1,3)               0.0000000      UZF10                                   
     11     (2,1,4)               0.0000000      UZF11                                   
     12     (2,1,5)               0.0000000      UZF12                                   
     13     (2,1,6)               0.0000000      UZF13                                   
     14     (2,1,7)               0.0000000      UZF14                                   
     15     (2,1,8)               0.0000000      UZF15                                   
     16     (2,1,9)               0.0000000      UZF16                                   
     17     (3,1,2)               0.0000000      UZF17                                   
     18     (3,1,3)               0.0000000      UZF18                                   
     19     (3,1,4)               0.0000000      UZF19                                   
     20     (3,1,5)               0.0000000      UZF20                                   
     21     (3,1,6)               0.0000000      UZF21                                   
     22     (3,1,7)               0.0000000      UZF22                                   
     23     (3,1,8)               0.0000000      UZF23                                   
     24     (3,1,9)               0.0000000      UZF24                                   
 ----------------------------------------------------------------------------------------




 UZF-GWET PACKAGE (UZF-1) FLOW RATES   PERIOD      1   STEP        3
 ----------------------------------------------------------------------------------------
   NUMBER   CELLID                    RATE       NAME                                    
 ----------------------------------------------------------------------------------------
     1      (1,1,2)               0.0000000      UZF01                                   
     2      (1,1,3)               0.0000000      UZF02                                   
     3      (1,1,4)               0.0000000      UZF03                                   
     4      (1,1,5)               0.0000000      UZF04                                   
     5      (1,1,6)               0.0000000      UZF05                                   
     6      (1,1,7)               0.0000000      UZF06                                   
     7      (1,1,8)               0.0000000      UZF07                                   
     8      (1,1,9)               0.0000000      UZF08                                   
     9      (2,1,2)               0.0000000      UZF08                                   
     10     (2,1,3)               0.0000000      UZF10                                   
     11     (2,1,4)               0.0000000      UZF11                                   
     12     (2,1,5)               0.0000000      UZF12                                   
     13     (2,1,6)               0.0000000      UZF13                                   
     14     (2,1,7)               0.0000000      UZF14                                   
     15     (2,1,8)               0.0000000      UZF15                                   
     16     (2,1,9)               0.0000000      UZF16                                   
     17     (3,1,2)               0.0000000      UZF17                                   
     18     (3,1,3)               0.0000000      UZF18                                   
     19     (3,1,4)               0.0000000      UZF19                                   
     20     (3,1,5)               0.0000000      UZF20                                   
     21     (3,1,6)               0.0000000      UZF21                                   
     22     (3,1,7)               0.0000000      UZF22                                   
     23     (3,1,8)               0.0000000      UZF23                                   
     24     (3,1,9)               0.0000000      UZF24                                   
 ----------------------------------------------------------------------------------------




 UZF-1 PACKAGE - SUMMARY OF FLOWS FOR EACH CONTROL VOLUME   PERIOD      1   STEP        3
 ----------------------------------------------------------------------------------------------------------------------------------------------------
                                                                                                                                           PERCENT   
   NUMBER   CELLID                  INFLOW      OUTFLOW        GWF      INFILTRATION   REJ INF        UZET       STORAGE      IN - OUT    DIFFERENCE 
 ----------------------------------------------------------------------------------------------------------------------------------------------------
     1      (1,1,2)               0.0000       0.0000       0.0000       1000.0       0.0000      -4.21636E-03 -1000.00      9.09495E-13  9.09495E-14
     2      (1,1,3)               0.0000       0.0000       0.0000       1000.0       0.0000      -4.21636E-03 -1000.00      9.09495E-13  9.09495E-14
     3      (1,1,4)               0.0000       0.0000       0.0000       1000.0       0.0000      -4.21636E-03 -1000.00      9.09495E-13  9.09495E-14
     4      (1,1,5)               0.0000       0.0000       0.0000       1000.0       0.0000      -4.21636E-03 -1000.00      9.09495E-13  9.09495E-14
     5      (1,1,6)               0.0000       0.0000       0.0000       1000.0       0.0000      -4.21636E-03 -1000.00      9.09495E-13  9.09495E-14
     6      (1,1,7)               0.0000       0.0000       0.0000       1000.0       0.0000      -4.21636E-03 -1000.00      9.09495E-13  9.09495E-14
     7      (1,1,8)               0.0000       0.0000       0.0000       1000.0       0.0000      -4.21636E-03 -1000.00      9.09495E-13  9.09495E-14
     8      (1,1,9)               0.0000       0.0000       0.0000       1000.0       0.0000      -4.21636E-03 -1000.00      9.09495E-13  9.09495E-14
     9      (2,1,2)               0.0000       0.0000       0.0000       0.0000       0.0000       0.0000       0.0000       0.0000       0.0000     
     10     (2,1,3)               0.0000       0.0000       0.0000       0.0000       0.0000       0.0000       0.0000       0.0000       0.0000     
     11     (2,1,4)               0.0000       0.0000       0.0000       0.0000       0.0000       0.0000       0.0000       0.0000       0.0000     
     12     (2,1,5)               0.0000       0.0000       0.0000       0.0000       0.0000       0.0000       0.0000       0.0000       0.0000     
     13     (2,1,6)               0.0000       0.0000       0.0000       0.0000       0.0000       0.0000       0.0000       0.0000       0.0000     
     14     (2,1,7)               0.0000       0.0000       0.0000       0.0000       0.0000       0.0000       0.0000       0.0000       0.0000     
     15     (2,1,8)               0.0000       0.0000       0.0000       0.0000       0.0000       0.0000       0.0000       0.0000       0.0000     
     16     (2,1,9)               0.0000       0.0000       0.0000       0.0000       0.0000       0.0000       0.0000       0.0000       0.0000     
     17     (3,1,2)               0.0000       0.0000       0.0000       0.0000       0.0000       0.0000       0.0000       0.0000       0.0000     
     18     (3,1,3)               0.0000       0.0000       0.0000       0.0000       0.0000       0.0000       0.0000       0.0000       0.0000     
     19     (3,1,4)               0.0000       0.0000       0.0000       0.0000       0.0000       0.0000       0.0000       0.0000       0.0000     
     20     (3,1,5)               0.0000       0.0000       0.0000       0.0000       0.0000       0.0000       0.0000       0.0000       0.0000     
     21     (3,1,6)               0.0000       0.0000       0.0000       0.0000       0.0000       0.0000       0.0000       0.0000       0.0000     
     22     (3,1,7)               0.0000       0.0000       0.0000       0.0000       0.0000       0.0000       0.0000       0.0000       0.0000     
     23     (3,1,8)               0.0000       0.0000       0.0000       0.0000       0.0000       0.0000       0.0000       0.0000       0.0000     
     24     (3,1,9)               0.0000       0.0000       0.0000       0.0000       0.0000       0.0000       0.0000       0.0000       0.0000     
 ----------------------------------------------------------------------------------------------------------------------------------------------------


1
  HEAD IN LAYER   1 AT END OF TIME STEP   3 IN STRESS PERIOD    1
  ---------------------------------------------------------------------------

            1           2           3           4           5           6           7           8           9          10
 ........................................................................................................................
   1   -25.00      -25.00      -25.00      -25.00      -25.00      -25.00      -25.00      -25.00      -25.00      -25.00    
1
  HEAD IN LAYER   2 AT END OF TIME STEP   3 IN STRESS PERIOD    1
  ---------------------------------------------------------------------------

            1           2           3           4           5           6           7           8           9          10
 ........................................................................................................................
   1   -25.00      -25.00      -25.00      -25.00      -25.00      -25.00      -25.00      -25.00      -25.00      -25.00    
1
  HEAD IN LAYER   3 AT END OF TIME STEP   3 IN STRESS PERIOD    1
  ---------------------------------------------------------------------------

            1           2           3           4           5           6           7           8           9          10
 ........................................................................................................................
   1   -25.00      -25.00      -25.00      -25.00      -25.00      -25.00      -25.00      -25.00      -25.00      -25.00    

 HEAD WILL BE SAVED ON UNIT 1022 AT END OF TIME STEP    3, STRESS PERIOD    1


  UZF-1 BUDGET FOR ENTIRE MODEL AT END OF TIME STEP    3, STRESS PERIOD   1
  ------------------------------------------------------------------------------

     CUMULATIVE UZF-1      L**3       RATES FOR THIS TIME STEP      L**3/T
     ------------------                 ------------------------

           IN:                                      IN:
           ---                                      ---
                 GWF =           0.0000                   GWF =           0.0000
        INFILTRATION =       48000.0000          INFILTRATION =        8000.0000
             REJ-INF =           0.0000               REJ-INF =           0.0000
                UZET =           0.0000                  UZET =           0.0000
             STORAGE =           0.0000               STORAGE =           0.0000

            TOTAL IN =       48000.0000              TOTAL IN =        8000.0000

          OUT:                                     OUT:
          ----                                     ----
                 GWF =           0.0000                   GWF =           0.0000
        INFILTRATION =           0.0000          INFILTRATION =           0.0000
             REJ-INF =           0.0000               REJ-INF =           0.0000
                UZET =           0.1349                  UZET =       3.3731E-02
             STORAGE =       47999.8651               STORAGE =        7999.9663

           TOTAL OUT =       48000.0000             TOTAL OUT =        8000.0000

            IN - OUT =       1.4552E-11              IN - OUT =       5.4570E-12

 PERCENT DISCREPANCY =           0.00     PERCENT DISCREPANCY =           0.00



  VOLUME BUDGET FOR ENTIRE MODEL AT END OF TIME STEP    3, STRESS PERIOD   1
  ---------------------------------------------------------------------------------------------------

     CUMULATIVE VOLUME      L**3       RATES FOR THIS TIME STEP      L**3/T          PACKAGE NAME    
     ------------------                 ------------------------                     ----------------

           IN:                                      IN:
           ---                                      ---
              STO-SS =           0.0000                STO-SS =           0.0000     STORAGE         
              STO-SY =           0.0000                STO-SY =           0.0000     STORAGE         
                 CHD =           0.0000                   CHD =           0.0000     CHD-1           
           UZF-GWRCH =           0.0000             UZF-GWRCH =           0.0000     UZF-1           
             UZF-GWD =           0.0000               UZF-GWD =           0.0000     UZF-1           
            UZF-GWET =           0.0000              UZF-GWET =           0.0000     UZF-1           

            TOTAL IN =           0.0000              TOTAL IN =           0.0000

          OUT:                                     OUT:
          ----                                     ----
              STO-SS =           0.0000                STO-SS =           0.0000     STORAGE         
              STO-SY =           0.0000                STO-SY =           0.0000     STORAGE         
                 CHD =           0.0000                   CHD =           0.0000     CHD-1           
           UZF-GWRCH =           0.0000             UZF-GWRCH =           0.0000     UZF-1           
             UZF-GWD =           0.0000               UZF-GWD =           0.0000     UZF-1           
            UZF-GWET =           0.0000              UZF-GWET =           0.0000     UZF-1           

           TOTAL OUT =           0.0000             TOTAL OUT =           0.0000

            IN - OUT =           0.0000              IN - OUT =           0.0000

 PERCENT DISCREPANCY =           0.00     PERCENT DISCREPANCY =           0.00




         TIME SUMMARY AT END OF TIME STEP    3 IN STRESS PERIOD    1
                    SECONDS     MINUTES      HOURS       DAYS        YEARS
                    -----------------------------------------------------------
   TIME STEP LENGTH 1.72800E+05  2880.0      48.000      2.0000     5.47570E-03
 STRESS PERIOD TIME 5.18400E+05  8640.0      144.00      6.0000     1.64271E-02
         TOTAL TIME 5.18400E+05  8640.0      144.00      6.0000     1.64271E-02


end timestep


start timestep kper="1" kstp="4" mode="normal"

 UBDSV1 SAVING     FLOW-JA-FACE ON UNIT   1020 AT TIME STEP      4, STRESS PERIOD      1
 UBDSV06 SAVING     FLOW-JA-FACE IN MODEL GWF_1            PACKAGE UZF-1           CONNECTED TO MODEL GWF_1            PACKAGE UZF-1            ON UNIT   1014 AT TIME STEP      4, STRESS PERIOD      1
 UBDSV06 SAVING              GWF IN MODEL GWF_1            PACKAGE UZF-1           CONNECTED TO MODEL GWF_1            PACKAGE GWF_1            ON UNIT   1014 AT TIME STEP      4, STRESS PERIOD      1
 UBDSV06 SAVING     INFILTRATION IN MODEL GWF_1            PACKAGE UZF-1           CONNECTED TO MODEL GWF_1            PACKAGE UZF-1            ON UNIT   1014 AT TIME STEP      4, STRESS PERIOD      1
 UBDSV06 SAVING          REJ-INF IN MODEL GWF_1            PACKAGE UZF-1           CONNECTED TO MODEL GWF_1            PACKAGE UZF-1            ON UNIT   1014 AT TIME STEP      4, STRESS PERIOD      1
 UBDSV06 SAVING             UZET IN MODEL GWF_1            PACKAGE UZF-1           CONNECTED TO MODEL GWF_1            PACKAGE UZF-1            ON UNIT   1014 AT TIME STEP      4, STRESS PERIOD      1
 UBDSV06 SAVING          STORAGE IN MODEL GWF_1            PACKAGE UZF-1           CONNECTED TO MODEL GWF_1            PACKAGE UZF-1            ON UNIT   1014 AT TIME STEP      4, STRESS PERIOD      1

 CHD PACKAGE (CHD-1) FLOW RATES   PERIOD      1   STEP        4
 -----------------------------------------------
   NUMBER   CELLID                    RATE      
 -----------------------------------------------
     1      (3,1,1)               0.0000000     
     2      (3,1,10)              0.0000000     
 -----------------------------------------------




 UZF-GWRCH PACKAGE (UZF-1) FLOW RATES   PERIOD      1   STEP        4
 ----------------------------------------------------------------------------------------
   NUMBER   CELLID                    RATE       NAME                                    
 ----------------------------------------------------------------------------------------
     1      (1,1,2)               0.0000000      UZF01                                   
     2      (1,1,3)               0.0000000      UZF02                                   
     3      (1,1,4)               0.0000000      UZF03                                   
     4      (1,1,5)               0.0000000      UZF04                                   
     5      (1,1,6)               0.0000000      UZF05                                   
     6      (1,1,7)               0.0000000      UZF06                                   
     7      (1,1,8)               0.0000000      UZF07                                   
     8      (1,1,9)               0.0000000      UZF08                                   
     9      (2,1,2)               0.0000000      UZF08                                   
     10     (2,1,3)               0.0000000      UZF10                                   
     11     (2,1,4)               0.0000000      UZF11                                   
     12     (2,1,5)               0.0000000      UZF12                                   
     13     (2,1,6)               0.0000000      UZF13                                   
     14     (2,1,7)               0.0000000      UZF14                                   
     15     (2,1,8)               0.0000000      UZF15                                   
     16     (2,1,9)               0.0000000      UZF16                                   
     17     (3,1,2)               0.0000000      UZF17                                   
     18     (3,1,3)               0.0000000      UZF18                                   
     19     (3,1,4)               0.0000000      UZF19                                   
     20     (3,1,5)               0.0000000      UZF20                                   
     21     (3,1,6)               0.0000000      UZF21                                   
     22     (3,1,7)               0.0000000      UZF22                                   
     23     (3,1,8)               0.0000000      UZF23                                   
     24     (3,1,9)               0.0000000      UZF24                                   
 ----------------------------------------------------------------------------------------




 UZF-GWD PACKAGE (UZF-1) FLOW RATES   PERIOD      1   STEP        4
 ----------------------------------------------------------------------------------------
   NUMBER   CELLID                    RATE       NAME                                    
 ----------------------------------------------------------------------------------------
     1      (1,1,2)               0.0000000      UZF01                                   
     2      (1,1,3)               0.0000000      UZF02                                   
     3      (1,1,4)               0.0000000      UZF03                                   
     4      (1,1,5)               0.0000000      UZF04                                   
     5      (1,1,6)               0.0000000      UZF05                                   
     6      (1,1,7)               0.0000000      UZF06                                   
     7      (1,1,8)               0.0000000      UZF07                                   
     8      (1,1,9)               0.0000000      UZF08                                   
     9      (2,1,2)               0.0000000      UZF08                                   
     10     (2,1,3)               0.0000000      UZF10                                   
     11     (2,1,4)               0.0000000      UZF11                                   
     12     (2,1,5)               0.0000000      UZF12                                   
     13     (2,1,6)               0.0000000      UZF13                                   
     14     (2,1,7)               0.0000000      UZF14                                   
     15     (2,1,8)               0.0000000      UZF15                                   
     16     (2,1,9)               0.0000000      UZF16                                   
     17     (3,1,2)               0.0000000      UZF17                                   
     18     (3,1,3)               0.0000000      UZF18                                   
     19     (3,1,4)               0.0000000      UZF19                                   
     20     (3,1,5)               0.0000000      UZF20                                   
     21     (3,1,6)               0.0000000      UZF21                                   
     22     (3,1,7)               0.0000000      UZF22                                   
     23     (3,1,8)               0.0000000      UZF23                                   
     24     (3,1,9)               0.0000000      UZF24                                   
 ----------------------------------------------------------------------------------------




 UZF-GWET PACKAGE (UZF-1) FLOW RATES   PERIOD      1   STEP        4
 ----------------------------------------------------------------------------------------
   NUMBER   CELLID                    RATE       NAME                                    
 ----------------------------------------------------------------------------------------
     1      (1,1,2)               0.0000000      UZF01                                   
     2      (1,1,3)               0.0000000      UZF02                                   
     3      (1,1,4)               0.0000000      UZF03                                   
     4      (1,1,5)               0.0000000      UZF04                                   
     5      (1,1,6)               0.0000000      UZF05                                   
     6      (1,1,7)               0.0000000      UZF06                                   
     7      (1,1,8)               0.0000000      UZF07                                   
     8      (1,1,9)               0.0000000      UZF08                                   
     9      (2,1,2)               0.0000000      UZF08                                   
     10     (2,1,3)               0.0000000      UZF10                                   
     11     (2,1,4)               0.0000000      UZF11                                   
     12     (2,1,5)               0.0000000      UZF12                                   
     13     (2,1,6)               0.0000000      UZF13                                   
     14     (2,1,7)               0.0000000      UZF14                                   
     15     (2,1,8)               0.0000000      UZF15                                   
     16     (2,1,9)               0.0000000      UZF16                                   
     17     (3,1,2)               0.0000000      UZF17                                   
     18     (3,1,3)               0.0000000      UZF18                                   
     19     (3,1,4)               0.0000000      UZF19                                   
     20     (3,1,5)               0.0000000      UZF20                                   
     21     (3,1,6)               0.0000000      UZF21                                   
     22     (3,1,7)               0.0000000      UZF22                                   
     23     (3,1,8)               0.0000000      UZF23                                   
     24     (3,1,9)               0.0000000      UZF24                                   
 ----------------------------------------------------------------------------------------




 UZF-1 PACKAGE - SUMMARY OF FLOWS FOR EACH CONTROL VOLUME   PERIOD      1   STEP        4
 ----------------------------------------------------------------------------------------------------------------------------------------------------
                                                                                                                                           PERCENT   
   NUMBER   CELLID                  INFLOW      OUTFLOW        GWF      INFILTRATION   REJ INF        UZET       STORAGE      IN - OUT    DIFFERENCE 
 ----------------------------------------------------------------------------------------------------------------------------------------------------
     1      (1,1,2)               0.0000       0.0000       0.0000       1000.0       0.0000      -5.62182E-03 -999.99       1.12417E-07  1.12417E-08
     2      (1,1,3)               0.0000       0.0000       0.0000       1000.0       0.0000      -5.62182E-03 -999.99       1.12417E-07  1.12417E-08
     3      (1,1,4)               0.0000       0.0000       0.0000       1000.0       0.0000      -5.62182E-03 -999.99       1.12417E-07  1.12417E-08
     4      (1,1,5)               0.0000       0.0000       0.0000       1000.0       0.0000      -5.62182E-03 -999.99       1.12417E-07  1.12417E-08
     5      (1,1,6)               0.0000       0.0000       0.0000       1000.0       0.0000      -5.62182E-03 -999.99       1.12417E-07  1.12417E-08
     6      (1,1,7)               0.0000       0.0000       0.0000       1000.0       0.0000      -5.62182E-03 -999.99       1.12417E-07  1.12417E-08
     7      (1,1,8)               0.0000       0.0000       0.0000       1000.0       0.0000      -5.62182E-03 -999.99       1.12417E-07  1.12417E-08
     8      (1,1,9)               0.0000       0.0000       0.0000       1000.0       0.0000      -5.62182E-03 -999.99       1.12417E-07  1.12417E-08
     9      (2,1,2)               0.0000       0.0000       0.0000       0.0000       0.0000       0.0000       0.0000       0.0000       0.0000     
     10     (2,1,3)               0.0000       0.0000       0.0000       0.0000       0.0000       0.0000       0.0000       0.0000       0.0000     
     11     (2,1,4)               0.0000       0.0000       0.0000       0.0000       0.0000       0.0000       0.0000       0.0000       0.0000     
     12     (2,1,5)               0.0000       0.0000       0.0000       0.0000       0.0000       0.0000       0.0000       0.0000       0.0000     
     13     (2,1,6)               0.0000       0.0000       0.0000       0.0000       0.0000       0.0000       0.0000       0.0000       0.0000     
     14     (2,1,7)               0.0000       0.0000       0.0000       0.0000       0.0000       0.0000       0.0000       0.0000       0.0000     
     15     (2,1,8)               0.0000       0.0000       0.0000       0.0000       0.0000       0.0000       0.0000       0.0000       0.0000     
     16     (2,1,9)               0.0000       0.0000       0.0000       0.0000       0.0000       0.0000       0.0000       0.0000       0.0000     
     17     (3,1,2)               0.0000       0.0000       0.0000       0.0000       0.0000       0.0000       0.0000       0.0000       0.0000     
     18     (3,1,3)               0.0000       0.0000       0.0000       0.0000       0.0000       0.0000       0.0000       0.0000       0.0000     
     19     (3,1,4)               0.0000       0.0000       0.0000       0.0000       0.0000       0.0000       0.0000       0.0000       0.0000     
     20     (3,1,5)               0.0000       0.0000       0.0000       0.0000       0.0000       0.0000       0.0000       0.0000       0.0000     
     21     (3,1,6)               0.0000       0.0000       0.0000       0.0000       0.0000       0.0000       0.0000       0.0000       0.0000     
     22     (3,1,7)               0.0000       0.0000       0.0000       0.0000       0.0000       0.0000       0.0000       0.0000       0.0000     
     23     (3,1,8)               0.0000       0.0000       0.0000       0.0000       0.0000       0.0000       0.0000       0.0000       0.0000     
     24     (3,1,9)               0.0000       0.0000       0.0000       0.0000       0.0000       0.0000       0.0000       0.0000       0.0000     
 ----------------------------------------------------------------------------------------------------------------------------------------------------


1
  HEAD IN LAYER   1 AT END OF TIME STEP   4 IN STRESS PERIOD    1
  ---------------------------------------------------------------------------

            1           2           3           4           5           6           7           8           9          10
 ........................................................................................................................
   1   -25.00      -25.00      -25.00      -25.00      -25.00      -25.00      -25.00      -25.00      -25.00      -25.00    
1
  HEAD IN LAYER   2 AT END OF TIME STEP   4 IN STRESS PERIOD    1
  ---------------------------------------------------------------------------

            1           2           3           4           5           6           7           8           9          10
 ........................................................................................................................
   1   -25.00      -25.00      -25.00      -25.00      -25.00      -25.00      -25.00      -25.00      -25.00      -25.00    
1
  HEAD IN LAYER   3 AT END OF TIME STEP   4 IN STRESS PERIOD    1
  ---------------------------------------------------------------------------

            1           2           3           4           5           6           7           8           9          10
 ........................................................................................................................
   1   -25.00      -25.00      -25.00      -25.00      -25.00      -25.00      -25.00      -25.00      -25.00      -25.00    

 HEAD WILL BE SAVED ON UNIT 1022 AT END OF TIME STEP    4, STRESS PERIOD    1


  UZF-1 BUDGET FOR ENTIRE MODEL AT END OF TIME STEP    4, STRESS PERIOD   1
  ------------------------------------------------------------------------------

     CUMULATIVE UZF-1      L**3       RATES FOR THIS TIME STEP      L**3/T
     ------------------                 ------------------------

           IN:                                      IN:
           ---                                      ---
                 GWF =           0.0000                   GWF =           0.0000
        INFILTRATION =       64000.0000          INFILTRATION =        8000.0000
             REJ-INF =           0.0000               REJ-INF =           0.0000
                UZET =           0.0000                  UZET =           0.0000
             STORAGE =           0.0000               STORAGE =           0.0000

            TOTAL IN =       64000.0000              TOTAL IN =        8000.0000

          OUT:                                     OUT:
          ----                                     ----
                 GWF =           0.0000                   GWF =           0.0000
        INFILTRATION =           0.0000          INFILTRATION =           0.0000
             REJ-INF =           0.0000               REJ-INF =           0.0000
                UZET =           0.2249                  UZET =       4.4975E-02
             STORAGE =       63999.7751               STORAGE =        7999.9550

           TOTAL OUT =       64000.0000             TOTAL OUT =        8000.0000

            IN - OUT =       1.7987E-06              IN - OUT =       8.9934E-07

 PERCENT DISCREPANCY =           0.00     PERCENT DISCREPANCY =           0.00



  VOLUME BUDGET FOR ENTIRE MODEL AT END OF TIME STEP    4, STRESS PERIOD   1
  ---------------------------------------------------------------------------------------------------

     CUMULATIVE VOLUME      L**3       RATES FOR THIS TIME STEP      L**3/T          PACKAGE NAME    
     ------------------                 ------------------------                     ----------------

           IN:                                      IN:
           ---                                      ---
              STO-SS =           0.0000                STO-SS =           0.0000     STORAGE         
              STO-SY =           0.0000                STO-SY =           0.0000     STORAGE         
                 CHD =           0.0000                   CHD =           0.0000     CHD-1           
           UZF-GWRCH =           0.0000             UZF-GWRCH =           0.0000     UZF-1           
             UZF-GWD =           0.0000               UZF-GWD =           0.0000     UZF-1           
            UZF-GWET =           0.0000              UZF-GWET =           0.0000     UZF-1           

            TOTAL IN =           0.0000              TOTAL IN =           0.0000

          OUT:                                     OUT:
          ----                                     ----
              STO-SS =           0.0000                STO-SS =           0.0000     STORAGE         
              STO-SY =           0.0000                STO-SY =           0.0000     STORAGE         
                 CHD =           0.0000                   CHD =           0.0000     CHD-1           
           UZF-GWRCH =           0.0000             UZF-GWRCH =           0.0000     UZF-1           
             UZF-GWD =           0.0000               UZF-GWD =           0.0000     UZF-1           
            UZF-GWET =           0.0000              UZF-GWET =           0.0000     UZF-1           

           TOTAL OUT =           0.0000             TOTAL OUT =           0.0000

            IN - OUT =           0.0000              IN - OUT =           0.0000

 PERCENT DISCREPANCY =           0.00     PERCENT DISCREPANCY =           0.00




         TIME SUMMARY AT END OF TIME STEP    4 IN STRESS PERIOD    1
                    SECONDS     MINUTES      HOURS       DAYS        YEARS
                    -----------------------------------------------------------
   TIME STEP LENGTH 1.72800E+05  2880.0      48.000      2.0000     5.47570E-03
 STRESS PERIOD TIME 6.91200E+05  11520.      192.00      8.0000     2.19028E-02
         TOTAL TIME 6.91200E+05  11520.      192.00      8.0000     2.19028E-02


end timestep


start timestep kper="1" kstp="5" mode="normal"

 UBDSV1 SAVING     FLOW-JA-FACE ON UNIT   1020 AT TIME STEP      5, STRESS PERIOD      1
 UBDSV06 SAVING     FLOW-JA-FACE IN MODEL GWF_1            PACKAGE UZF-1           CONNECTED TO MODEL GWF_1            PACKAGE UZF-1            ON UNIT   1014 AT TIME STEP      5, STRESS PERIOD      1
 UBDSV06 SAVING              GWF IN MODEL GWF_1            PACKAGE UZF-1           CONNECTED TO MODEL GWF_1            PACKAGE GWF_1            ON UNIT   1014 AT TIME STEP      5, STRESS PERIOD      1
 UBDSV06 SAVING     INFILTRATION IN MODEL GWF_1            PACKAGE UZF-1           CONNECTED TO MODEL GWF_1            PACKAGE UZF-1            ON UNIT   1014 AT TIME STEP      5, STRESS PERIOD      1
 UBDSV06 SAVING          REJ-INF IN MODEL GWF_1            PACKAGE UZF-1           CONNECTED TO MODEL GWF_1            PACKAGE UZF-1            ON UNIT   1014 AT TIME STEP      5, STRESS PERIOD      1
 UBDSV06 SAVING             UZET IN MODEL GWF_1            PACKAGE UZF-1           CONNECTED TO MODEL GWF_1            PACKAGE UZF-1            ON UNIT   1014 AT TIME STEP      5, STRESS PERIOD      1
 UBDSV06 SAVING          STORAGE IN MODEL GWF_1            PACKAGE UZF-1           CONNECTED TO MODEL GWF_1            PACKAGE UZF-1            ON UNIT   1014 AT TIME STEP      5, STRESS PERIOD      1

 CHD PACKAGE (CHD-1) FLOW RATES   PERIOD      1   STEP        5
 -----------------------------------------------
   NUMBER   CELLID                    RATE      
 -----------------------------------------------
     1      (3,1,1)               0.0000000     
     2      (3,1,10)              0.0000000     
 -----------------------------------------------




 UZF-GWRCH PACKAGE (UZF-1) FLOW RATES   PERIOD      1   STEP        5
 ----------------------------------------------------------------------------------------
   NUMBER   CELLID                    RATE       NAME                                    
 ----------------------------------------------------------------------------------------
     1      (1,1,2)               0.0000000      UZF01                                   
     2      (1,1,3)               0.0000000      UZF02                                   
     3      (1,1,4)               0.0000000      UZF03                                   
     4      (1,1,5)               0.0000000      UZF04                                   
     5      (1,1,6)               0.0000000      UZF05                                   
     6      (1,1,7)               0.0000000      UZF06                                   
     7      (1,1,8)               0.0000000      UZF07                                   
     8      (1,1,9)               0.0000000      UZF08                                   
     9      (2,1,2)               0.0000000      UZF08                                   
     10     (2,1,3)               0.0000000      UZF10                                   
     11     (2,1,4)               0.0000000      UZF11                                   
     12     (2,1,5)               0.0000000      UZF12                                   
     13     (2,1,6)               0.0000000      UZF13                                   
     14     (2,1,7)               0.0000000      UZF14                                   
     15     (2,1,8)               0.0000000      UZF15                                   
     16     (2,1,9)               0.0000000      UZF16                                   
     17     (3,1,2)               0.0000000      UZF17                                   
     18     (3,1,3)               0.0000000      UZF18                                   
     19     (3,1,4)               0.0000000      UZF19                                   
     20     (3,1,5)               0.0000000      UZF20                                   
     21     (3,1,6)               0.0000000      UZF21                                   
     22     (3,1,7)               0.0000000      UZF22                                   
     23     (3,1,8)               0.0000000      UZF23                                   
     24     (3,1,9)               0.0000000      UZF24                                   
 ----------------------------------------------------------------------------------------




 UZF-GWD PACKAGE (UZF-1) FLOW RATES   PERIOD      1   STEP        5
 ----------------------------------------------------------------------------------------
   NUMBER   CELLID                    RATE       NAME                                    
 ----------------------------------------------------------------------------------------
     1      (1,1,2)               0.0000000      UZF01                                   
     2      (1,1,3)               0.0000000      UZF02                                   
     3      (1,1,4)               0.0000000      UZF03                                   
     4      (1,1,5)               0.0000000      UZF04                                   
     5      (1,1,6)               0.0000000      UZF05                                   
     6      (1,1,7)               0.0000000      UZF06                                   
     7      (1,1,8)               0.0000000      UZF07                                   
     8      (1,1,9)               0.0000000      UZF08                                   
     9      (2,1,2)               0.0000000      UZF08                                   
     10     (2,1,3)               0.0000000      UZF10                                   
     11     (2,1,4)               0.0000000      UZF11                                   
     12     (2,1,5)               0.0000000      UZF12                                   
     13     (2,1,6)               0.0000000      UZF13                                   
     14     (2,1,7)               0.0000000      UZF14                                   
     15     (2,1,8)               0.0000000      UZF15                                   
     16     (2,1,9)               0.0000000      UZF16                                   
     17     (3,1,2)               0.0000000      UZF17                                   
     18     (3,1,3)               0.0000000      UZF18                                   
     19     (3,1,4)               0.0000000      UZF19                                   
     20     (3,1,5)               0.0000000      UZF20                                   
     21     (3,1,6)               0.0000000      UZF21                                   
     22     (3,1,7)               0.0000000      UZF22                                   
     23     (3,1,8)               0.0000000      UZF23                                   
     24     (3,1,9)               0.0000000      UZF24                                   
 ----------------------------------------------------------------------------------------




 UZF-GWET PACKAGE (UZF-1) FLOW RATES   PERIOD      1   STEP        5
 ----------------------------------------------------------------------------------------
   NUMBER   CELLID                    RATE       NAME                                    
 ----------------------------------------------------------------------------------------
     1      (1,1,2)               0.0000000      UZF01                                   
     2      (1,1,3)               0.0000000      UZF02                                   
     3      (1,1,4)               0.0000000      UZF03                                   
     4      (1,1,5)               0.0000000      UZF04                                   
     5      (1,1,6)               0.0000000      UZF05                                   
     6      (1,1,7)               0.0000000      UZF06                                   
     7      (1,1,8)               0.0000000      UZF07                                   
     8      (1,1,9)               0.0000000      UZF08                                   
     9      (2,1,2)               0.0000000      UZF08                                   
     10     (2,1,3)               0.0000000      UZF10                                   
     11     (2,1,4)               0.0000000      UZF11                                   
     12     (2,1,5)               0.0000000      UZF12                                   
     13     (2,1,6)               0.0000000      UZF13                                   
     14     (2,1,7)               0.0000000      UZF14                                   
     15     (2,1,8)               0.0000000      UZF15                                   
     16     (2,1,9)               0.0000000      UZF16                                   
     17     (3,1,2)               0.0000000      UZF17                                   
     18     (3,1,3)               0.0000000      UZF18                                   
     19     (3,1,4)               0.0000000      UZF19                                   
     20     (3,1,5)               0.0000000      UZF20                                   
     21     (3,1,6)               0.0000000      UZF21                                   
     22     (3,1,7)               0.0000000      UZF22                                   
     23     (3,1,8)               0.0000000      UZF23                                   
     24     (3,1,9)               0.0000000      UZF24                                   
 ----------------------------------------------------------------------------------------




 UZF-1 PACKAGE - SUMMARY OF FLOWS FOR EACH CONTROL VOLUME   PERIOD      1   STEP        5
 ----------------------------------------------------------------------------------------------------------------------------------------------------
                                                                                                                                           PERCENT   
   NUMBER   CELLID                  INFLOW      OUTFLOW        GWF      INFILTRATION   REJ INF        UZET       STORAGE      IN - OUT    DIFFERENCE 
 ----------------------------------------------------------------------------------------------------------------------------------------------------
     1      (1,1,2)               0.0000       0.0000       0.0000       1000.0       0.0000      -1.26491E-02 -999.99       1.25056E-12  1.25056E-13
     2      (1,1,3)               0.0000       0.0000       0.0000       1000.0       0.0000      -1.26491E-02 -999.99       1.25056E-12  1.25056E-13
     3      (1,1,4)               0.0000       0.0000       0.0000       1000.0       0.0000      -1.26491E-02 -999.99       1.25056E-12  1.25056E-13
     4      (1,1,5)               0.0000       0.0000       0.0000       1000.0       0.0000      -1.26491E-02 -999.99       1.25056E-12  1.25056E-13
     5      (1,1,6)               0.0000       0.0000       0.0000       1000.0       0.0000      -1.26491E-02 -999.99       1.25056E-12  1.25056E-13
     6      (1,1,7)               0.0000       0.0000       0.0000       1000.0       0.0000      -1.26491E-02 -999.99       1.25056E-12  1.25056E-13
     7      (1,1,8)               0.0000       0.0000       0.0000       1000.0       0.0000      -1.26491E-02 -999.99       1.25056E-12  1.25056E-13
     8      (1,1,9)               0.0000       0.0000       0.0000       1000.0       0.0000      -1.26491E-02 -999.99       1.25056E-12  1.25056E-13
     9      (2,1,2)               0.0000       0.0000       0.0000       0.0000       0.0000       0.0000       0.0000       0.0000       0.0000     
     10     (2,1,3)               0.0000       0.0000       0.0000       0.0000       0.0000       0.0000       0.0000       0.0000       0.0000     
     11     (2,1,4)               0.0000       0.0000       0.0000       0.0000       0.0000       0.0000       0.0000       0.0000       0.0000     
     12     (2,1,5)               0.0000       0.0000       0.0000       0.0000       0.0000       0.0000       0.0000       0.0000       0.0000     
     13     (2,1,6)               0.0000       0.0000       0.0000       0.0000       0.0000       0.0000       0.0000       0.0000       0.0000     
     14     (2,1,7)               0.0000       0.0000       0.0000       0.0000       0.0000       0.0000       0.0000       0.0000       0.0000     
     15     (2,1,8)               0.0000       0.0000       0.0000       0.0000       0.0000       0.0000       0.0000       0.0000       0.0000     
     16     (2,1,9)               0.0000       0.0000       0.0000       0.0000       0.0000       0.0000       0.0000       0.0000       0.0000     
     17     (3,1,2)               0.0000       0.0000       0.0000       0.0000       0.0000       0.0000       0.0000       0.0000       0.0000     
     18     (3,1,3)               0.0000       0.0000       0.0000       0.0000       0.0000       0.0000       0.0000       0.0000       0.0000     
     19     (3,1,4)               0.0000       0.0000       0.0000       0.0000       0.0000       0.0000       0.0000       0.0000       0.0000     
     20     (3,1,5)               0.0000       0.0000       0.0000       0.0000       0.0000       0.0000       0.0000       0.0000       0.0000     
     21     (3,1,6)               0.0000       0.0000       0.0000       0.0000       0.0000       0.0000       0.0000       0.0000       0.0000     
     22     (3,1,7)               0.0000       0.0000       0.0000       0.0000       0.0000       0.0000       0.0000       0.0000       0.0000     
     23     (3,1,8)               0.0000       0.0000       0.0000       0.0000       0.0000       0.0000       0.0000       0.0000       0.0000     
     24     (3,1,9)               0.0000       0.0000       0.0000       0.0000       0.0000       0.0000       0.0000       0.0000       0.0000     
 ----------------------------------------------------------------------------------------------------------------------------------------------------


1
  HEAD IN LAYER   1 AT END OF TIME STEP   5 IN STRESS PERIOD    1
  ---------------------------------------------------------------------------

            1           2           3           4           5           6           7           8           9          10
 ........................................................................................................................
   1   -25.00      -25.00      -25.00      -25.00      -25.00      -25.00      -25.00      -25.00      -25.00      -25.00    
1
  HEAD IN LAYER   2 AT END OF TIME STEP   5 IN STRESS PERIOD    1
  ---------------------------------------------------------------------------

            1           2           3           4           5           6           7           8           9          10
 ........................................................................................................................
   1   -25.00      -25.00      -25.00      -25.00      -25.00      -25.00      -25.00      -25.00      -25.00      -25.00    
1
  HEAD IN LAYER   3 AT END OF TIME STEP   5 IN STRESS PERIOD    1
  ---------------------------------------------------------------------------

            1           2           3           4           5           6           7           8           9          10
 ........................................................................................................................
   1   -25.00      -25.00      -25.00      -25.00      -25.00      -25.00      -25.00      -25.00      -25.00      -25.00    

 HEAD WILL BE SAVED ON UNIT 1022 AT END OF TIME STEP    5, STRESS PERIOD    1


  UZF-1 BUDGET FOR ENTIRE MODEL AT END OF TIME STEP    5, STRESS PERIOD   1
  ------------------------------------------------------------------------------

     CUMULATIVE UZF-1      L**3       RATES FOR THIS TIME STEP      L**3/T
     ------------------                 ------------------------

           IN:                                      IN:
           ---                                      ---
                 GWF =           0.0000                   GWF =           0.0000
        INFILTRATION =       80000.0000          INFILTRATION =        8000.0000
             REJ-INF =           0.0000               REJ-INF =           0.0000
                UZET =           0.0000                  UZET =           0.0000
             STORAGE =           0.0000               STORAGE =           0.0000

            TOTAL IN =       80000.0000              TOTAL IN =        8000.0000

          OUT:                                     OUT:
          ----                                     ----
                 GWF =           0.0000                   GWF =           0.0000
        INFILTRATION =           0.0000          INFILTRATION =           0.0000
             REJ-INF =           0.0000               REJ-INF =           0.0000
                UZET =           0.4273                  UZET =           0.1012
             STORAGE =       79999.5727               STORAGE =        7999.8988

           TOTAL OUT =       80000.0000             TOTAL OUT =        8000.0000

            IN - OUT =       1.7987E-06              IN - OUT =       9.0949E-12

 PERCENT DISCREPANCY =           0.00     PERCENT DISCREPANCY =           0.00



  VOLUME BUDGET FOR ENTIRE MODEL AT END OF TIME STEP    5, STRESS PERIOD   1
  ---------------------------------------------------------------------------------------------------

     CUMULATIVE VOLUME      L**3       RATES FOR THIS TIME STEP      L**3/T          PACKAGE NAME    
     ------------------                 ------------------------                     ----------------

           IN:                                      IN:
           ---                                      ---
              STO-SS =           0.0000                STO-SS =           0.0000     STORAGE         
              STO-SY =           0.0000                STO-SY =           0.0000     STORAGE         
                 CHD =           0.0000                   CHD =           0.0000     CHD-1           
           UZF-GWRCH =           0.0000             UZF-GWRCH =           0.0000     UZF-1           
             UZF-GWD =           0.0000               UZF-GWD =           0.0000     UZF-1           
            UZF-GWET =           0.0000              UZF-GWET =           0.0000     UZF-1           

            TOTAL IN =           0.0000              TOTAL IN =           0.0000

          OUT:                                     OUT:
          ----                                     ----
              STO-SS =           0.0000                STO-SS =           0.0000     STORAGE         
              STO-SY =           0.0000                STO-SY =           0.0000     STORAGE         
                 CHD =           0.0000                   CHD =           0.0000     CHD-1           
           UZF-GWRCH =           0.0000             UZF-GWRCH =           0.0000     UZF-1           
             UZF-GWD =           0.0000               UZF-GWD =           0.0000     UZF-1           
            UZF-GWET =           0.0000              UZF-GWET =           0.0000     UZF-1           

           TOTAL OUT =           0.0000             TOTAL OUT =           0.0000

            IN - OUT =           0.0000              IN - OUT =           0.0000

 PERCENT DISCREPANCY =           0.00     PERCENT DISCREPANCY =           0.00




         TIME SUMMARY AT END OF TIME STEP    5 IN STRESS PERIOD    1
                    SECONDS     MINUTES      HOURS       DAYS        YEARS
                    -----------------------------------------------------------
   TIME STEP LENGTH 1.72800E+05  2880.0      48.000      2.0000     5.47570E-03
 STRESS PERIOD TIME 8.64000E+05  14400.      240.00      10.000     2.73785E-02
         TOTAL TIME 8.64000E+05  14400.      240.00      10.000     2.73785E-02


end timestep


start timestep kper="1" kstp="6" mode="normal"

 UBDSV1 SAVING     FLOW-JA-FACE ON UNIT   1020 AT TIME STEP      6, STRESS PERIOD      1
 UBDSV06 SAVING     FLOW-JA-FACE IN MODEL GWF_1            PACKAGE UZF-1           CONNECTED TO MODEL GWF_1            PACKAGE UZF-1            ON UNIT   1014 AT TIME STEP      6, STRESS PERIOD      1
 UBDSV06 SAVING              GWF IN MODEL GWF_1            PACKAGE UZF-1           CONNECTED TO MODEL GWF_1            PACKAGE GWF_1            ON UNIT   1014 AT TIME STEP      6, STRESS PERIOD      1
 UBDSV06 SAVING     INFILTRATION IN MODEL GWF_1            PACKAGE UZF-1           CONNECTED TO MODEL GWF_1            PACKAGE UZF-1            ON UNIT   1014 AT TIME STEP      6, STRESS PERIOD      1
 UBDSV06 SAVING          REJ-INF IN MODEL GWF_1            PACKAGE UZF-1           CONNECTED TO MODEL GWF_1            PACKAGE UZF-1            ON UNIT   1014 AT TIME STEP      6, STRESS PERIOD      1
 UBDSV06 SAVING             UZET IN MODEL GWF_1            PACKAGE UZF-1           CONNECTED TO MODEL GWF_1            PACKAGE UZF-1            ON UNIT   1014 AT TIME STEP      6, STRESS PERIOD      1
 UBDSV06 SAVING          STORAGE IN MODEL GWF_1            PACKAGE UZF-1           CONNECTED TO MODEL GWF_1            PACKAGE UZF-1            ON UNIT   1014 AT TIME STEP      6, STRESS PERIOD      1

 CHD PACKAGE (CHD-1) FLOW RATES   PERIOD      1   STEP        6
 -----------------------------------------------
   NUMBER   CELLID                    RATE      
 -----------------------------------------------
     1      (3,1,1)               0.0000000     
     2      (3,1,10)              0.0000000     
 -----------------------------------------------




 UZF-GWRCH PACKAGE (UZF-1) FLOW RATES   PERIOD      1   STEP        6
 ----------------------------------------------------------------------------------------
   NUMBER   CELLID                    RATE       NAME                                    
 ----------------------------------------------------------------------------------------
     1      (1,1,2)               0.0000000      UZF01                                   
     2      (1,1,3)               0.0000000      UZF02                                   
     3      (1,1,4)               0.0000000      UZF03                                   
     4      (1,1,5)               0.0000000      UZF04                                   
     5      (1,1,6)               0.0000000      UZF05                                   
     6      (1,1,7)               0.0000000      UZF06                                   
     7      (1,1,8)               0.0000000      UZF07                                   
     8      (1,1,9)               0.0000000      UZF08                                   
     9      (2,1,2)               0.0000000      UZF08                                   
     10     (2,1,3)               0.0000000      UZF10                                   
     11     (2,1,4)               0.0000000      UZF11                                   
     12     (2,1,5)               0.0000000      UZF12                                   
     13     (2,1,6)               0.0000000      UZF13                                   
     14     (2,1,7)               0.0000000      UZF14                                   
     15     (2,1,8)               0.0000000      UZF15                                   
     16     (2,1,9)               0.0000000      UZF16                                   
     17     (3,1,2)               0.0000000      UZF17                                   
     18     (3,1,3)               0.0000000      UZF18                                   
     19     (3,1,4)               0.0000000      UZF19                                   
     20     (3,1,5)               0.0000000      UZF20                                   
     21     (3,1,6)               0.0000000      UZF21                                   
     22     (3,1,7)               0.0000000      UZF22                                   
     23     (3,1,8)               0.0000000      UZF23                                   
     24     (3,1,9)               0.0000000      UZF24                                   
 ----------------------------------------------------------------------------------------




 UZF-GWD PACKAGE (UZF-1) FLOW RATES   PERIOD      1   STEP        6
 ----------------------------------------------------------------------------------------
   NUMBER   CELLID                    RATE       NAME                                    
 ----------------------------------------------------------------------------------------
     1      (1,1,2)               0.0000000      UZF01                                   
     2      (1,1,3)               0.0000000      UZF02                                   
     3      (1,1,4)               0.0000000      UZF03                                   
     4      (1,1,5)               0.0000000      UZF04                                   
     5      (1,1,6)               0.0000000      UZF05                                   
     6      (1,1,7)               0.0000000      UZF06                                   
     7      (1,1,8)               0.0000000      UZF07                                   
     8      (1,1,9)               0.0000000      UZF08                                   
     9      (2,1,2)               0.0000000      UZF08                                   
     10     (2,1,3)               0.0000000      UZF10                                   
     11     (2,1,4)               0.0000000      UZF11                                   
     12     (2,1,5)               0.0000000      UZF12                                   
     13     (2,1,6)               0.0000000      UZF13                                   
     14     (2,1,7)               0.0000000      UZF14                                   
     15     (2,1,8)               0.0000000      UZF15                                   
     16     (2,1,9)               0.0000000      UZF16                                   
     17     (3,1,2)               0.0000000      UZF17                                   
     18     (3,1,3)               0.0000000      UZF18                                   
     19     (3,1,4)               0.0000000      UZF19                                   
     20     (3,1,5)               0.0000000      UZF20                                   
     21     (3,1,6)               0.0000000      UZF21                                   
     22     (3,1,7)               0.0000000      UZF22                                   
     23     (3,1,8)               0.0000000      UZF23                                   
     24     (3,1,9)               0.0000000      UZF24                                   
 ----------------------------------------------------------------------------------------




 UZF-GWET PACKAGE (UZF-1) FLOW RATES   PERIOD      1   STEP        6
 ----------------------------------------------------------------------------------------
   NUMBER   CELLID                    RATE       NAME                                    
 ----------------------------------------------------------------------------------------
     1      (1,1,2)               0.0000000      UZF01                                   
     2      (1,1,3)               0.0000000      UZF02                                   
     3      (1,1,4)               0.0000000      UZF03                                   
     4      (1,1,5)               0.0000000      UZF04                                   
     5      (1,1,6)               0.0000000      UZF05                                   
     6      (1,1,7)               0.0000000      UZF06                                   
     7      (1,1,8)               0.0000000      UZF07                                   
     8      (1,1,9)               0.0000000      UZF08                                   
     9      (2,1,2)               0.0000000      UZF08                                   
     10     (2,1,3)               0.0000000      UZF10                                   
     11     (2,1,4)               0.0000000      UZF11                                   
     12     (2,1,5)               0.0000000      UZF12                                   
     13     (2,1,6)               0.0000000      UZF13                                   
     14     (2,1,7)               0.0000000      UZF14                                   
     15     (2,1,8)               0.0000000      UZF15                                   
     16     (2,1,9)               0.0000000      UZF16                                   
     17     (3,1,2)               0.0000000      UZF17                                   
     18     (3,1,3)               0.0000000      UZF18                                   
     19     (3,1,4)               0.0000000      UZF19                                   
     20     (3,1,5)               0.0000000      UZF20                                   
     21     (3,1,6)               0.0000000      UZF21                                   
     22     (3,1,7)               0.0000000      UZF22                                   
     23     (3,1,8)               0.0000000      UZF23                                   
     24     (3,1,9)               0.0000000      UZF24                                   
 ----------------------------------------------------------------------------------------




 UZF-1 PACKAGE - SUMMARY OF FLOWS FOR EACH CONTROL VOLUME   PERIOD      1   STEP        6
 ----------------------------------------------------------------------------------------------------------------------------------------------------
                                                                                                                                           PERCENT   
   NUMBER   CELLID                  INFLOW      OUTFLOW        GWF      INFILTRATION   REJ INF        UZET       STORAGE      IN - OUT    DIFFERENCE 
 ----------------------------------------------------------------------------------------------------------------------------------------------------
     1      (1,1,2)               0.0000       0.0000       0.0000       1000.0       0.0000      -1.96763E-02 -999.98      -2.27374E-13 -2.27374E-14
     2      (1,1,3)               0.0000       0.0000       0.0000       1000.0       0.0000      -1.96763E-02 -999.98      -2.27374E-13 -2.27374E-14
     3      (1,1,4)               0.0000       0.0000       0.0000       1000.0       0.0000      -1.96763E-02 -999.98      -2.27374E-13 -2.27374E-14
     4      (1,1,5)               0.0000       0.0000       0.0000       1000.0       0.0000      -1.96763E-02 -999.98      -2.27374E-13 -2.27374E-14
     5      (1,1,6)               0.0000       0.0000       0.0000       1000.0       0.0000      -1.96763E-02 -999.98      -2.27374E-13 -2.27374E-14
     6      (1,1,7)               0.0000       0.0000       0.0000       1000.0       0.0000      -1.96763E-02 -999.98      -2.27374E-13 -2.27374E-14
     7      (1,1,8)               0.0000       0.0000       0.0000       1000.0       0.0000      -1.96763E-02 -999.98      -2.27374E-13 -2.27374E-14
     8      (1,1,9)               0.0000       0.0000       0.0000       1000.0       0.0000      -1.96763E-02 -999.98      -2.27374E-13 -2.27374E-14
     9      (2,1,2)               0.0000       0.0000       0.0000       0.0000       0.0000       0.0000       0.0000       0.0000       0.0000     
     10     (2,1,3)               0.0000       0.0000       0.0000       0.0000       0.0000       0.0000       0.0000       0.0000       0.0000     
     11     (2,1,4)               0.0000       0.0000       0.0000       0.0000       0.0000       0.0000       0.0000       0.0000       0.0000     
     12     (2,1,5)               0.0000       0.0000       0.0000       0.0000       0.0000       0.0000       0.0000       0.0000       0.0000     
     13     (2,1,6)               0.0000       0.0000       0.0000       0.0000       0.0000       0.0000       0.0000       0.0000       0.0000     
     14     (2,1,7)               0.0000       0.0000       0.0000       0.0000       0.0000       0.0000       0.0000       0.0000       0.0000     
     15     (2,1,8)               0.0000       0.0000       0.0000       0.0000       0.0000       0.0000       0.0000       0.0000       0.0000     
     16     (2,1,9)               0.0000       0.0000       0.0000       0.0000       0.0000       0.0000       0.0000       0.0000       0.0000     
     17     (3,1,2)               0.0000       0.0000       0.0000       0.0000       0.0000       0.0000       0.0000       0.0000       0.0000     
     18     (3,1,3)               0.0000       0.0000       0.0000       0.0000       0.0000       0.0000       0.0000       0.0000       0.0000     
     19     (3,1,4)               0.0000       0.0000       0.0000       0.0000       0.0000       0.0000       0.0000       0.0000       0.0000     
     20     (3,1,5)               0.0000       0.0000       0.0000       0.0000       0.0000       0.0000       0.0000       0.0000       0.0000     
     21     (3,1,6)               0.0000       0.0000       0.0000       0.0000       0.0000       0.0000       0.0000       0.0000       0.0000     
     22     (3,1,7)               0.0000       0.0000       0.0000       0.0000       0.0000       0.0000       0.0000       0.0000       0.0000     
     23     (3,1,8)               0.0000       0.0000       0.0000       0.0000       0.0000       0.0000       0.0000       0.0000       0.0000     
     24     (3,1,9)               0.0000       0.0000       0.0000       0.0000       0.0000       0.0000       0.0000       0.0000       0.0000     
 ----------------------------------------------------------------------------------------------------------------------------------------------------


1
  HEAD IN LAYER   1 AT END OF TIME STEP   6 IN STRESS PERIOD    1
  ---------------------------------------------------------------------------

            1           2           3           4           5           6           7           8           9          10
 ........................................................................................................................
   1   -25.00      -25.00      -25.00      -25.00      -25.00      -25.00      -25.00      -25.00      -25.00      -25.00    
1
  HEAD IN LAYER   2 AT END OF TIME STEP   6 IN STRESS PERIOD    1
  ---------------------------------------------------------------------------

            1           2           3           4           5           6           7           8           9          10
 ........................................................................................................................
   1   -25.00      -25.00      -25.00      -25.00      -25.00      -25.00      -25.00      -25.00      -25.00      -25.00    
1
  HEAD IN LAYER   3 AT END OF TIME STEP   6 IN STRESS PERIOD    1
  ---------------------------------------------------------------------------

            1           2           3           4           5           6           7           8           9          10
 ........................................................................................................................
   1   -25.00      -25.00      -25.00      -25.00      -25.00      -25.00      -25.00      -25.00      -25.00      -25.00    

 HEAD WILL BE SAVED ON UNIT 1022 AT END OF TIME STEP    6, STRESS PERIOD    1


  UZF-1 BUDGET FOR ENTIRE MODEL AT END OF TIME STEP    6, STRESS PERIOD   1
  ------------------------------------------------------------------------------

     CUMULATIVE UZF-1      L**3       RATES FOR THIS TIME STEP      L**3/T
     ------------------                 ------------------------

           IN:                                      IN:
           ---                                      ---
                 GWF =           0.0000                   GWF =           0.0000
        INFILTRATION =       96000.0000          INFILTRATION =        8000.0000
             REJ-INF =           0.0000               REJ-INF =           0.0000
                UZET =           0.0000                  UZET =           0.0000
             STORAGE =           0.0000               STORAGE =           0.0000

            TOTAL IN =       96000.0000              TOTAL IN =        8000.0000

          OUT:                                     OUT:
          ----                                     ----
                 GWF =           0.0000                   GWF =           0.0000
        INFILTRATION =           0.0000          INFILTRATION =           0.0000
             REJ-INF =           0.0000               REJ-INF =           0.0000
                UZET =           0.7421                  UZET =           0.1574
             STORAGE =       95999.2579               STORAGE =        7999.8426

           TOTAL OUT =       96000.0000             TOTAL OUT =        8000.0000

            IN - OUT =       1.7987E-06              IN - OUT =      -9.0949E-13

 PERCENT DISCREPANCY =           0.00     PERCENT DISCREPANCY =          -0.00



  VOLUME BUDGET FOR ENTIRE MODEL AT END OF TIME STEP    6, STRESS PERIOD   1
  ---------------------------------------------------------------------------------------------------

     CUMULATIVE VOLUME      L**3       RATES FOR THIS TIME STEP      L**3/T          PACKAGE NAME    
     ------------------                 ------------------------                     ----------------

           IN:                                      IN:
           ---                                      ---
              STO-SS =           0.0000                STO-SS =           0.0000     STORAGE         
              STO-SY =           0.0000                STO-SY =           0.0000     STORAGE         
                 CHD =           0.0000                   CHD =           0.0000     CHD-1           
           UZF-GWRCH =           0.0000             UZF-GWRCH =           0.0000     UZF-1           
             UZF-GWD =           0.0000               UZF-GWD =           0.0000     UZF-1           
            UZF-GWET =           0.0000              UZF-GWET =           0.0000     UZF-1           

            TOTAL IN =           0.0000              TOTAL IN =           0.0000

          OUT:                                     OUT:
          ----                                     ----
              STO-SS =           0.0000                STO-SS =           0.0000     STORAGE         
              STO-SY =           0.0000                STO-SY =           0.0000     STORAGE         
                 CHD =           0.0000                   CHD =           0.0000     CHD-1           
           UZF-GWRCH =           0.0000             UZF-GWRCH =           0.0000     UZF-1           
             UZF-GWD =           0.0000               UZF-GWD =           0.0000     UZF-1           
            UZF-GWET =           0.0000              UZF-GWET =           0.0000     UZF-1           

           TOTAL OUT =           0.0000             TOTAL OUT =           0.0000

            IN - OUT =           0.0000              IN - OUT =           0.0000

 PERCENT DISCREPANCY =           0.00     PERCENT DISCREPANCY =           0.00




         TIME SUMMARY AT END OF TIME STEP    6 IN STRESS PERIOD    1
                    SECONDS     MINUTES      HOURS       DAYS        YEARS
                    -----------------------------------------------------------
   TIME STEP LENGTH 1.72800E+05  2880.0      48.000      2.0000     5.47570E-03
 STRESS PERIOD TIME 1.03680E+06  17280.      288.00      12.000     3.28542E-02
         TOTAL TIME 1.03680E+06  17280.      288.00      12.000     3.28542E-02


end timestep


start timestep kper="1" kstp="7" mode="normal"

 UBDSV1 SAVING     FLOW-JA-FACE ON UNIT   1020 AT TIME STEP      7, STRESS PERIOD      1
 UBDSV06 SAVING     FLOW-JA-FACE IN MODEL GWF_1            PACKAGE UZF-1           CONNECTED TO MODEL GWF_1            PACKAGE UZF-1            ON UNIT   1014 AT TIME STEP      7, STRESS PERIOD      1
 UBDSV06 SAVING              GWF IN MODEL GWF_1            PACKAGE UZF-1           CONNECTED TO MODEL GWF_1            PACKAGE GWF_1            ON UNIT   1014 AT TIME STEP      7, STRESS PERIOD      1
 UBDSV06 SAVING     INFILTRATION IN MODEL GWF_1            PACKAGE UZF-1           CONNECTED TO MODEL GWF_1            PACKAGE UZF-1            ON UNIT   1014 AT TIME STEP      7, STRESS PERIOD      1
 UBDSV06 SAVING          REJ-INF IN MODEL GWF_1            PACKAGE UZF-1           CONNECTED TO MODEL GWF_1            PACKAGE UZF-1            ON UNIT   1014 AT TIME STEP      7, STRESS PERIOD      1
 UBDSV06 SAVING             UZET IN MODEL GWF_1            PACKAGE UZF-1           CONNECTED TO MODEL GWF_1            PACKAGE UZF-1            ON UNIT   1014 AT TIME STEP      7, STRESS PERIOD      1
 UBDSV06 SAVING          STORAGE IN MODEL GWF_1            PACKAGE UZF-1           CONNECTED TO MODEL GWF_1            PACKAGE UZF-1            ON UNIT   1014 AT TIME STEP      7, STRESS PERIOD      1

 CHD PACKAGE (CHD-1) FLOW RATES   PERIOD      1   STEP        7
 -----------------------------------------------
   NUMBER   CELLID                    RATE      
 -----------------------------------------------
     1      (3,1,1)               0.0000000     
     2      (3,1,10)              0.0000000     
 -----------------------------------------------




 UZF-GWRCH PACKAGE (UZF-1) FLOW RATES   PERIOD      1   STEP        7
 ----------------------------------------------------------------------------------------
   NUMBER   CELLID                    RATE       NAME                                    
 ----------------------------------------------------------------------------------------
     1      (1,1,2)               0.0000000      UZF01                                   
     2      (1,1,3)               0.0000000      UZF02                                   
     3      (1,1,4)               0.0000000      UZF03                                   
     4      (1,1,5)               0.0000000      UZF04                                   
     5      (1,1,6)               0.0000000      UZF05                                   
     6      (1,1,7)               0.0000000      UZF06                                   
     7      (1,1,8)               0.0000000      UZF07                                   
     8      (1,1,9)               0.0000000      UZF08                                   
     9      (2,1,2)               0.0000000      UZF08                                   
     10     (2,1,3)               0.0000000      UZF10                                   
     11     (2,1,4)               0.0000000      UZF11                                   
     12     (2,1,5)               0.0000000      UZF12                                   
     13     (2,1,6)               0.0000000      UZF13                                   
     14     (2,1,7)               0.0000000      UZF14                                   
     15     (2,1,8)               0.0000000      UZF15                                   
     16     (2,1,9)               0.0000000      UZF16                                   
     17     (3,1,2)               0.0000000      UZF17                                   
     18     (3,1,3)               0.0000000      UZF18                                   
     19     (3,1,4)               0.0000000      UZF19                                   
     20     (3,1,5)               0.0000000      UZF20                                   
     21     (3,1,6)               0.0000000      UZF21                                   
     22     (3,1,7)               0.0000000      UZF22                                   
     23     (3,1,8)               0.0000000      UZF23                                   
     24     (3,1,9)               0.0000000      UZF24                                   
 ----------------------------------------------------------------------------------------




 UZF-GWD PACKAGE (UZF-1) FLOW RATES   PERIOD      1   STEP        7
 ----------------------------------------------------------------------------------------
   NUMBER   CELLID                    RATE       NAME                                    
 ----------------------------------------------------------------------------------------
     1      (1,1,2)               0.0000000      UZF01                                   
     2      (1,1,3)               0.0000000      UZF02                                   
     3      (1,1,4)               0.0000000      UZF03                                   
     4      (1,1,5)               0.0000000      UZF04                                   
     5      (1,1,6)               0.0000000      UZF05                                   
     6      (1,1,7)               0.0000000      UZF06                                   
     7      (1,1,8)               0.0000000      UZF07                                   
     8      (1,1,9)               0.0000000      UZF08                                   
     9      (2,1,2)               0.0000000      UZF08                                   
     10     (2,1,3)               0.0000000      UZF10                                   
     11     (2,1,4)               0.0000000      UZF11                                   
     12     (2,1,5)               0.0000000      UZF12                                   
     13     (2,1,6)               0.0000000      UZF13                                   
     14     (2,1,7)               0.0000000      UZF14                                   
     15     (2,1,8)               0.0000000      UZF15                                   
     16     (2,1,9)               0.0000000      UZF16                                   
     17     (3,1,2)               0.0000000      UZF17                                   
     18     (3,1,3)               0.0000000      UZF18                                   
     19     (3,1,4)               0.0000000      UZF19                                   
     20     (3,1,5)               0.0000000      UZF20                                   
     21     (3,1,6)               0.0000000      UZF21                                   
     22     (3,1,7)               0.0000000      UZF22                                   
     23     (3,1,8)               0.0000000      UZF23                                   
     24     (3,1,9)               0.0000000      UZF24                                   
 ----------------------------------------------------------------------------------------




 UZF-GWET PACKAGE (UZF-1) FLOW RATES   PERIOD      1   STEP        7
 ----------------------------------------------------------------------------------------
   NUMBER   CELLID                    RATE       NAME                                    
 ----------------------------------------------------------------------------------------
     1      (1,1,2)               0.0000000      UZF01                                   
     2      (1,1,3)               0.0000000      UZF02                                   
     3      (1,1,4)               0.0000000      UZF03                                   
     4      (1,1,5)               0.0000000      UZF04                                   
     5      (1,1,6)               0.0000000      UZF05                                   
     6      (1,1,7)               0.0000000      UZF06                                   
     7      (1,1,8)               0.0000000      UZF07                                   
     8      (1,1,9)               0.0000000      UZF08                                   
     9      (2,1,2)               0.0000000      UZF08                                   
     10     (2,1,3)               0.0000000      UZF10                                   
     11     (2,1,4)               0.0000000      UZF11                                   
     12     (2,1,5)               0.0000000      UZF12                                   
     13     (2,1,6)               0.0000000      UZF13                                   
     14     (2,1,7)               0.0000000      UZF14                                   
     15     (2,1,8)               0.0000000      UZF15                                   
     16     (2,1,9)               0.0000000      UZF16                                   
     17     (3,1,2)               0.0000000      UZF17                                   
     18     (3,1,3)               0.0000000      UZF18                                   
     19     (3,1,4)               0.0000000      UZF19                                   
     20     (3,1,5)               0.0000000      UZF20                                   
     21     (3,1,6)               0.0000000      UZF21                                   
     22     (3,1,7)               0.0000000      UZF22                                   
     23     (3,1,8)               0.0000000      UZF23                                   
     24     (3,1,9)               0.0000000      UZF24                                   
 ----------------------------------------------------------------------------------------




 UZF-1 PACKAGE - SUMMARY OF FLOWS FOR EACH CONTROL VOLUME   PERIOD      1   STEP        7
 ----------------------------------------------------------------------------------------------------------------------------------------------------
                                                                                                                                           PERCENT   
   NUMBER   CELLID                  INFLOW      OUTFLOW        GWF      INFILTRATION   REJ INF        UZET       STORAGE      IN - OUT    DIFFERENCE 
 ----------------------------------------------------------------------------------------------------------------------------------------------------
     1      (1,1,2)               0.0000       0.0000       0.0000       1000.0       0.0000      -2.67035E-02 -999.97       4.54747E-13  4.54747E-14
     2      (1,1,3)               0.0000       0.0000       0.0000       1000.0       0.0000      -2.67035E-02 -999.97       4.54747E-13  4.54747E-14
     3      (1,1,4)               0.0000       0.0000       0.0000       1000.0       0.0000      -2.67035E-02 -999.97       4.54747E-13  4.54747E-14
     4      (1,1,5)               0.0000       0.0000       0.0000       1000.0       0.0000      -2.67035E-02 -999.97       4.54747E-13  4.54747E-14
     5      (1,1,6)               0.0000       0.0000       0.0000       1000.0       0.0000      -2.67035E-02 -999.97       4.54747E-13  4.54747E-14
     6      (1,1,7)               0.0000       0.0000       0.0000       1000.0       0.0000      -2.67035E-02 -999.97       4.54747E-13  4.54747E-14
     7      (1,1,8)               0.0000       0.0000       0.0000       1000.0       0.0000      -2.67035E-02 -999.97       4.54747E-13  4.54747E-14
     8      (1,1,9)               0.0000       0.0000       0.0000       1000.0       0.0000      -2.67035E-02 -999.97       4.54747E-13  4.54747E-14
     9      (2,1,2)               0.0000       0.0000       0.0000       0.0000       0.0000       0.0000       0.0000       0.0000       0.0000     
     10     (2,1,3)               0.0000       0.0000       0.0000       0.0000       0.0000       0.0000       0.0000       0.0000       0.0000     
     11     (2,1,4)               0.0000       0.0000       0.0000       0.0000       0.0000       0.0000       0.0000       0.0000       0.0000     
     12     (2,1,5)               0.0000       0.0000       0.0000       0.0000       0.0000       0.0000       0.0000       0.0000       0.0000     
     13     (2,1,6)               0.0000       0.0000       0.0000       0.0000       0.0000       0.0000       0.0000       0.0000       0.0000     
     14     (2,1,7)               0.0000       0.0000       0.0000       0.0000       0.0000       0.0000       0.0000       0.0000       0.0000     
     15     (2,1,8)               0.0000       0.0000       0.0000       0.0000       0.0000       0.0000       0.0000       0.0000       0.0000     
     16     (2,1,9)               0.0000       0.0000       0.0000       0.0000       0.0000       0.0000       0.0000       0.0000       0.0000     
     17     (3,1,2)               0.0000       0.0000       0.0000       0.0000       0.0000       0.0000       0.0000       0.0000       0.0000     
     18     (3,1,3)               0.0000       0.0000       0.0000       0.0000       0.0000       0.0000       0.0000       0.0000       0.0000     
     19     (3,1,4)               0.0000       0.0000       0.0000       0.0000       0.0000       0.0000       0.0000       0.0000       0.0000     
     20     (3,1,5)               0.0000       0.0000       0.0000       0.0000       0.0000       0.0000       0.0000       0.0000       0.0000     
     21     (3,1,6)               0.0000       0.0000       0.0000       0.0000       0.0000       0.0000       0.0000       0.0000       0.0000     
     22     (3,1,7)               0.0000       0.0000       0.0000       0.0000       0.0000       0.0000       0.0000       0.0000       0.0000     
     23     (3,1,8)               0.0000       0.0000       0.0000       0.0000       0.0000       0.0000       0.0000       0.0000       0.0000     
     24     (3,1,9)               0.0000       0.0000       0.0000       0.0000       0.0000       0.0000       0.0000       0.0000       0.0000     
 ----------------------------------------------------------------------------------------------------------------------------------------------------


1
  HEAD IN LAYER   1 AT END OF TIME STEP   7 IN STRESS PERIOD    1
  ---------------------------------------------------------------------------

            1           2           3           4           5           6           7           8           9          10
 ........................................................................................................................
   1   -25.00      -25.00      -25.00      -25.00      -25.00      -25.00      -25.00      -25.00      -25.00      -25.00    
1
  HEAD IN LAYER   2 AT END OF TIME STEP   7 IN STRESS PERIOD    1
  ---------------------------------------------------------------------------

            1           2           3           4           5           6           7           8           9          10
 ........................................................................................................................
   1   -25.00      -25.00      -25.00      -25.00      -25.00      -25.00      -25.00      -25.00      -25.00      -25.00    
1
  HEAD IN LAYER   3 AT END OF TIME STEP   7 IN STRESS PERIOD    1
  ---------------------------------------------------------------------------

            1           2           3           4           5           6           7           8           9          10
 ........................................................................................................................
   1   -25.00      -25.00      -25.00      -25.00      -25.00      -25.00      -25.00      -25.00      -25.00      -25.00    

 HEAD WILL BE SAVED ON UNIT 1022 AT END OF TIME STEP    7, STRESS PERIOD    1


  UZF-1 BUDGET FOR ENTIRE MODEL AT END OF TIME STEP    7, STRESS PERIOD   1
  ------------------------------------------------------------------------------

     CUMULATIVE UZF-1      L**3       RATES FOR THIS TIME STEP      L**3/T
     ------------------                 ------------------------

           IN:                                      IN:
           ---                                      ---
                 GWF =           0.0000                   GWF =           0.0000
        INFILTRATION =      112000.0000          INFILTRATION =        8000.0000
             REJ-INF =           0.0000               REJ-INF =           0.0000
                UZET =           0.0000                  UZET =           0.0000
             STORAGE =           0.0000               STORAGE =           0.0000

            TOTAL IN =      112000.0000              TOTAL IN =        8000.0000

          OUT:                                     OUT:
          ----                                     ----
                 GWF =           0.0000                   GWF =           0.0000
        INFILTRATION =           0.0000          INFILTRATION =           0.0000
             REJ-INF =           0.0000               REJ-INF =           0.0000
                UZET =           1.1693                  UZET =           0.2136
             STORAGE =      111998.8307               STORAGE =        7999.7864

           TOTAL OUT =      112000.0000             TOTAL OUT =        8000.0000

            IN - OUT =       1.7987E-06              IN - OUT =       5.4570E-12

 PERCENT DISCREPANCY =           0.00     PERCENT DISCREPANCY =           0.00



  VOLUME BUDGET FOR ENTIRE MODEL AT END OF TIME STEP    7, STRESS PERIOD   1
  ---------------------------------------------------------------------------------------------------

     CUMULATIVE VOLUME      L**3       RATES FOR THIS TIME STEP      L**3/T          PACKAGE NAME    
     ------------------                 ------------------------                     ----------------

           IN:                                      IN:
           ---                                      ---
              STO-SS =           0.0000                STO-SS =           0.0000     STORAGE         
              STO-SY =           0.0000                STO-SY =           0.0000     STORAGE         
                 CHD =           0.0000                   CHD =           0.0000     CHD-1           
           UZF-GWRCH =           0.0000             UZF-GWRCH =           0.0000     UZF-1           
             UZF-GWD =           0.0000               UZF-GWD =           0.0000     UZF-1           
            UZF-GWET =           0.0000              UZF-GWET =           0.0000     UZF-1           

            TOTAL IN =           0.0000              TOTAL IN =           0.0000

          OUT:                                     OUT:
          ----                                     ----
              STO-SS =           0.0000                STO-SS =           0.0000     STORAGE         
              STO-SY =           0.0000                STO-SY =           0.0000     STORAGE         
                 CHD =           0.0000                   CHD =           0.0000     CHD-1           
           UZF-GWRCH =           0.0000             UZF-GWRCH =           0.0000     UZF-1           
             UZF-GWD =           0.0000               UZF-GWD =           0.0000     UZF-1           
            UZF-GWET =           0.0000              UZF-GWET =           0.0000     UZF-1           

           TOTAL OUT =           0.0000             TOTAL OUT =           0.0000

            IN - OUT =           0.0000              IN - OUT =           0.0000

 PERCENT DISCREPANCY =           0.00     PERCENT DISCREPANCY =           0.00




         TIME SUMMARY AT END OF TIME STEP    7 IN STRESS PERIOD    1
                    SECONDS     MINUTES      HOURS       DAYS        YEARS
                    -----------------------------------------------------------
   TIME STEP LENGTH 1.72800E+05  2880.0      48.000      2.0000     5.47570E-03
 STRESS PERIOD TIME 1.20960E+06  20160.      336.00      14.000     3.83299E-02
         TOTAL TIME 1.20960E+06  20160.      336.00      14.000     3.83299E-02


end timestep


start timestep kper="1" kstp="8" mode="normal"

 UBDSV1 SAVING     FLOW-JA-FACE ON UNIT   1020 AT TIME STEP      8, STRESS PERIOD      1
 UBDSV06 SAVING     FLOW-JA-FACE IN MODEL GWF_1            PACKAGE UZF-1           CONNECTED TO MODEL GWF_1            PACKAGE UZF-1            ON UNIT   1014 AT TIME STEP      8, STRESS PERIOD      1
 UBDSV06 SAVING              GWF IN MODEL GWF_1            PACKAGE UZF-1           CONNECTED TO MODEL GWF_1            PACKAGE GWF_1            ON UNIT   1014 AT TIME STEP      8, STRESS PERIOD      1
 UBDSV06 SAVING     INFILTRATION IN MODEL GWF_1            PACKAGE UZF-1           CONNECTED TO MODEL GWF_1            PACKAGE UZF-1            ON UNIT   1014 AT TIME STEP      8, STRESS PERIOD      1
 UBDSV06 SAVING          REJ-INF IN MODEL GWF_1            PACKAGE UZF-1           CONNECTED TO MODEL GWF_1            PACKAGE UZF-1            ON UNIT   1014 AT TIME STEP      8, STRESS PERIOD      1
 UBDSV06 SAVING             UZET IN MODEL GWF_1            PACKAGE UZF-1           CONNECTED TO MODEL GWF_1            PACKAGE UZF-1            ON UNIT   1014 AT TIME STEP      8, STRESS PERIOD      1
 UBDSV06 SAVING          STORAGE IN MODEL GWF_1            PACKAGE UZF-1           CONNECTED TO MODEL GWF_1            PACKAGE UZF-1            ON UNIT   1014 AT TIME STEP      8, STRESS PERIOD      1

 CHD PACKAGE (CHD-1) FLOW RATES   PERIOD      1   STEP        8
 -----------------------------------------------
   NUMBER   CELLID                    RATE      
 -----------------------------------------------
     1      (3,1,1)               0.0000000     
     2      (3,1,10)              0.0000000     
 -----------------------------------------------




 UZF-GWRCH PACKAGE (UZF-1) FLOW RATES   PERIOD      1   STEP        8
 ----------------------------------------------------------------------------------------
   NUMBER   CELLID                    RATE       NAME                                    
 ----------------------------------------------------------------------------------------
     1      (1,1,2)               0.0000000      UZF01                                   
     2      (1,1,3)               0.0000000      UZF02                                   
     3      (1,1,4)               0.0000000      UZF03                                   
     4      (1,1,5)               0.0000000      UZF04                                   
     5      (1,1,6)               0.0000000      UZF05                                   
     6      (1,1,7)               0.0000000      UZF06                                   
     7      (1,1,8)               0.0000000      UZF07                                   
     8      (1,1,9)               0.0000000      UZF08                                   
     9      (2,1,2)               0.0000000      UZF08                                   
     10     (2,1,3)               0.0000000      UZF10                                   
     11     (2,1,4)               0.0000000      UZF11                                   
     12     (2,1,5)               0.0000000      UZF12                                   
     13     (2,1,6)               0.0000000      UZF13                                   
     14     (2,1,7)               0.0000000      UZF14                                   
     15     (2,1,8)               0.0000000      UZF15                                   
     16     (2,1,9)               0.0000000      UZF16                                   
     17     (3,1,2)               0.0000000      UZF17                                   
     18     (3,1,3)               0.0000000      UZF18                                   
     19     (3,1,4)               0.0000000      UZF19                                   
     20     (3,1,5)               0.0000000      UZF20                                   
     21     (3,1,6)               0.0000000      UZF21                                   
     22     (3,1,7)               0.0000000      UZF22                                   
     23     (3,1,8)               0.0000000      UZF23                                   
     24     (3,1,9)               0.0000000      UZF24                                   
 ----------------------------------------------------------------------------------------




 UZF-GWD PACKAGE (UZF-1) FLOW RATES   PERIOD      1   STEP        8
 ----------------------------------------------------------------------------------------
   NUMBER   CELLID                    RATE       NAME                                    
 ----------------------------------------------------------------------------------------
     1      (1,1,2)               0.0000000      UZF01                                   
     2      (1,1,3)               0.0000000      UZF02                                   
     3      (1,1,4)               0.0000000      UZF03                                   
     4      (1,1,5)               0.0000000      UZF04                                   
     5      (1,1,6)               0.0000000      UZF05                                   
     6      (1,1,7)               0.0000000      UZF06                                   
     7      (1,1,8)               0.0000000      UZF07                                   
     8      (1,1,9)               0.0000000      UZF08                                   
     9      (2,1,2)               0.0000000      UZF08                                   
     10     (2,1,3)               0.0000000      UZF10                                   
     11     (2,1,4)               0.0000000      UZF11                                   
     12     (2,1,5)               0.0000000      UZF12                                   
     13     (2,1,6)               0.0000000      UZF13                                   
     14     (2,1,7)               0.0000000      UZF14                                   
     15     (2,1,8)               0.0000000      UZF15                                   
     16     (2,1,9)               0.0000000      UZF16                                   
     17     (3,1,2)               0.0000000      UZF17                                   
     18     (3,1,3)               0.0000000      UZF18                                   
     19     (3,1,4)               0.0000000      UZF19                                   
     20     (3,1,5)               0.0000000      UZF20                                   
     21     (3,1,6)               0.0000000      UZF21                                   
     22     (3,1,7)               0.0000000      UZF22                                   
     23     (3,1,8)               0.0000000      UZF23                                   
     24     (3,1,9)               0.0000000      UZF24                                   
 ----------------------------------------------------------------------------------------




 UZF-GWET PACKAGE (UZF-1) FLOW RATES   PERIOD      1   STEP        8
 ----------------------------------------------------------------------------------------
   NUMBER   CELLID                    RATE       NAME                                    
 ----------------------------------------------------------------------------------------
     1      (1,1,2)               0.0000000      UZF01                                   
     2      (1,1,3)               0.0000000      UZF02                                   
     3      (1,1,4)               0.0000000      UZF03                                   
     4      (1,1,5)               0.0000000      UZF04                                   
     5      (1,1,6)               0.0000000      UZF05                                   
     6      (1,1,7)               0.0000000      UZF06                                   
     7      (1,1,8)               0.0000000      UZF07                                   
     8      (1,1,9)               0.0000000      UZF08                                   
     9      (2,1,2)               0.0000000      UZF08                                   
     10     (2,1,3)               0.0000000      UZF10                                   
     11     (2,1,4)               0.0000000      UZF11                                   
     12     (2,1,5)               0.0000000      UZF12                                   
     13     (2,1,6)               0.0000000      UZF13                                   
     14     (2,1,7)               0.0000000      UZF14                                   
     15     (2,1,8)               0.0000000      UZF15                                   
     16     (2,1,9)               0.0000000      UZF16                                   
     17     (3,1,2)               0.0000000      UZF17                                   
     18     (3,1,3)               0.0000000      UZF18                                   
     19     (3,1,4)               0.0000000      UZF19                                   
     20     (3,1,5)               0.0000000      UZF20                                   
     21     (3,1,6)               0.0000000      UZF21                                   
     22     (3,1,7)               0.0000000      UZF22                                   
     23     (3,1,8)               0.0000000      UZF23                                   
     24     (3,1,9)               0.0000000      UZF24                                   
 ----------------------------------------------------------------------------------------




 UZF-1 PACKAGE - SUMMARY OF FLOWS FOR EACH CONTROL VOLUME   PERIOD      1   STEP        8
 ----------------------------------------------------------------------------------------------------------------------------------------------------
                                                                                                                                           PERCENT   
   NUMBER   CELLID                  INFLOW      OUTFLOW        GWF      INFILTRATION   REJ INF        UZET       STORAGE      IN - OUT    DIFFERENCE 
 ----------------------------------------------------------------------------------------------------------------------------------------------------
     1      (1,1,2)               0.0000       0.0000       0.0000       1000.0       0.0000      -3.37307E-02 -999.97      -7.95808E-13 -7.95808E-14
     2      (1,1,3)               0.0000       0.0000       0.0000       1000.0       0.0000      -3.37307E-02 -999.97      -7.95808E-13 -7.95808E-14
     3      (1,1,4)               0.0000       0.0000       0.0000       1000.0       0.0000      -3.37307E-02 -999.97      -7.95808E-13 -7.95808E-14
     4      (1,1,5)               0.0000       0.0000       0.0000       1000.0       0.0000      -3.37307E-02 -999.97      -7.95808E-13 -7.95808E-14
     5      (1,1,6)               0.0000       0.0000       0.0000       1000.0       0.0000      -3.37307E-02 -999.97      -7.95808E-13 -7.95808E-14
     6      (1,1,7)               0.0000       0.0000       0.0000       1000.0       0.0000      -3.37307E-02 -999.97      -7.95808E-13 -7.95808E-14
     7      (1,1,8)               0.0000       0.0000       0.0000       1000.0       0.0000      -3.37307E-02 -999.97      -7.95808E-13 -7.95808E-14
     8      (1,1,9)               0.0000       0.0000       0.0000       1000.0       0.0000      -3.37307E-02 -999.97      -7.95808E-13 -7.95808E-14
     9      (2,1,2)               0.0000       0.0000       0.0000       0.0000       0.0000       0.0000       0.0000       0.0000       0.0000     
     10     (2,1,3)               0.0000       0.0000       0.0000       0.0000       0.0000       0.0000       0.0000       0.0000       0.0000     
     11     (2,1,4)               0.0000       0.0000       0.0000       0.0000       0.0000       0.0000       0.0000       0.0000       0.0000     
     12     (2,1,5)               0.0000       0.0000       0.0000       0.0000       0.0000       0.0000       0.0000       0.0000       0.0000     
     13     (2,1,6)               0.0000       0.0000       0.0000       0.0000       0.0000       0.0000       0.0000       0.0000       0.0000     
     14     (2,1,7)               0.0000       0.0000       0.0000       0.0000       0.0000       0.0000       0.0000       0.0000       0.0000     
     15     (2,1,8)               0.0000       0.0000       0.0000       0.0000       0.0000       0.0000       0.0000       0.0000       0.0000     
     16     (2,1,9)               0.0000       0.0000       0.0000       0.0000       0.0000       0.0000       0.0000       0.0000       0.0000     
     17     (3,1,2)               0.0000       0.0000       0.0000       0.0000       0.0000       0.0000       0.0000       0.0000       0.0000     
     18     (3,1,3)               0.0000       0.0000       0.0000       0.0000       0.0000       0.0000       0.0000       0.0000       0.0000     
     19     (3,1,4)               0.0000       0.0000       0.0000       0.0000       0.0000       0.0000       0.0000       0.0000       0.0000     
     20     (3,1,5)               0.0000       0.0000       0.0000       0.0000       0.0000       0.0000       0.0000       0.0000       0.0000     
     21     (3,1,6)               0.0000       0.0000       0.0000       0.0000       0.0000       0.0000       0.0000       0.0000       0.0000     
     22     (3,1,7)               0.0000       0.0000       0.0000       0.0000       0.0000       0.0000       0.0000       0.0000       0.0000     
     23     (3,1,8)               0.0000       0.0000       0.0000       0.0000       0.0000       0.0000       0.0000       0.0000       0.0000     
     24     (3,1,9)               0.0000       0.0000       0.0000       0.0000       0.0000       0.0000       0.0000       0.0000       0.0000     
 ----------------------------------------------------------------------------------------------------------------------------------------------------


1
  HEAD IN LAYER   1 AT END OF TIME STEP   8 IN STRESS PERIOD    1
  ---------------------------------------------------------------------------

            1           2           3           4           5           6           7           8           9          10
 ........................................................................................................................
   1   -25.00      -25.00      -25.00      -25.00      -25.00      -25.00      -25.00      -25.00      -25.00      -25.00    
1
  HEAD IN LAYER   2 AT END OF TIME STEP   8 IN STRESS PERIOD    1
  ---------------------------------------------------------------------------

            1           2           3           4           5           6           7           8           9          10
 ........................................................................................................................
   1   -25.00      -25.00      -25.00      -25.00      -25.00      -25.00      -25.00      -25.00      -25.00      -25.00    
1
  HEAD IN LAYER   3 AT END OF TIME STEP   8 IN STRESS PERIOD    1
  ---------------------------------------------------------------------------

            1           2           3           4           5           6           7           8           9          10
 ........................................................................................................................
   1   -25.00      -25.00      -25.00      -25.00      -25.00      -25.00      -25.00      -25.00      -25.00      -25.00    

 HEAD WILL BE SAVED ON UNIT 1022 AT END OF TIME STEP    8, STRESS PERIOD    1


  UZF-1 BUDGET FOR ENTIRE MODEL AT END OF TIME STEP    8, STRESS PERIOD   1
  ------------------------------------------------------------------------------

     CUMULATIVE UZF-1      L**3       RATES FOR THIS TIME STEP      L**3/T
     ------------------                 ------------------------

           IN:                                      IN:
           ---                                      ---
                 GWF =           0.0000                   GWF =           0.0000
        INFILTRATION =      128000.0000          INFILTRATION =        8000.0000
             REJ-INF =           0.0000               REJ-INF =           0.0000
                UZET =           0.0000                  UZET =           0.0000
             STORAGE =           0.0000               STORAGE =           0.0000

            TOTAL IN =      128000.0000              TOTAL IN =        8000.0000

          OUT:                                     OUT:
          ----                                     ----
                 GWF =           0.0000                   GWF =           0.0000
        INFILTRATION =           0.0000          INFILTRATION =           0.0000
             REJ-INF =           0.0000               REJ-INF =           0.0000
                UZET =           1.7090                  UZET =           0.2698
             STORAGE =      127998.2910               STORAGE =        7999.7302

           TOTAL OUT =      128000.0000             TOTAL OUT =        8000.0000

            IN - OUT =       1.7987E-06              IN - OUT =      -4.5475E-12

 PERCENT DISCREPANCY =           0.00     PERCENT DISCREPANCY =          -0.00



  VOLUME BUDGET FOR ENTIRE MODEL AT END OF TIME STEP    8, STRESS PERIOD   1
  ---------------------------------------------------------------------------------------------------

     CUMULATIVE VOLUME      L**3       RATES FOR THIS TIME STEP      L**3/T          PACKAGE NAME    
     ------------------                 ------------------------                     ----------------

           IN:                                      IN:
           ---                                      ---
              STO-SS =           0.0000                STO-SS =           0.0000     STORAGE         
              STO-SY =           0.0000                STO-SY =           0.0000     STORAGE         
                 CHD =           0.0000                   CHD =           0.0000     CHD-1           
           UZF-GWRCH =           0.0000             UZF-GWRCH =           0.0000     UZF-1           
             UZF-GWD =           0.0000               UZF-GWD =           0.0000     UZF-1           
            UZF-GWET =           0.0000              UZF-GWET =           0.0000     UZF-1           

            TOTAL IN =           0.0000              TOTAL IN =           0.0000

          OUT:                                     OUT:
          ----                                     ----
              STO-SS =           0.0000                STO-SS =           0.0000     STORAGE         
              STO-SY =           0.0000                STO-SY =           0.0000     STORAGE         
                 CHD =           0.0000                   CHD =           0.0000     CHD-1           
           UZF-GWRCH =           0.0000             UZF-GWRCH =           0.0000     UZF-1           
             UZF-GWD =           0.0000               UZF-GWD =           0.0000     UZF-1           
            UZF-GWET =           0.0000              UZF-GWET =           0.0000     UZF-1           

           TOTAL OUT =           0.0000             TOTAL OUT =           0.0000

            IN - OUT =           0.0000              IN - OUT =           0.0000

 PERCENT DISCREPANCY =           0.00     PERCENT DISCREPANCY =           0.00




         TIME SUMMARY AT END OF TIME STEP    8 IN STRESS PERIOD    1
                    SECONDS     MINUTES      HOURS       DAYS        YEARS
                    -----------------------------------------------------------
   TIME STEP LENGTH 1.72800E+05  2880.0      48.000      2.0000     5.47570E-03
 STRESS PERIOD TIME 1.38240E+06  23040.      384.00      16.000     4.38056E-02
         TOTAL TIME 1.38240E+06  23040.      384.00      16.000     4.38056E-02


end timestep


start timestep kper="1" kstp="9" mode="normal"

 UBDSV1 SAVING     FLOW-JA-FACE ON UNIT   1020 AT TIME STEP      9, STRESS PERIOD      1
 UBDSV06 SAVING     FLOW-JA-FACE IN MODEL GWF_1            PACKAGE UZF-1           CONNECTED TO MODEL GWF_1            PACKAGE UZF-1            ON UNIT   1014 AT TIME STEP      9, STRESS PERIOD      1
 UBDSV06 SAVING              GWF IN MODEL GWF_1            PACKAGE UZF-1           CONNECTED TO MODEL GWF_1            PACKAGE GWF_1            ON UNIT   1014 AT TIME STEP      9, STRESS PERIOD      1
 UBDSV06 SAVING     INFILTRATION IN MODEL GWF_1            PACKAGE UZF-1           CONNECTED TO MODEL GWF_1            PACKAGE UZF-1            ON UNIT   1014 AT TIME STEP      9, STRESS PERIOD      1
 UBDSV06 SAVING          REJ-INF IN MODEL GWF_1            PACKAGE UZF-1           CONNECTED TO MODEL GWF_1            PACKAGE UZF-1            ON UNIT   1014 AT TIME STEP      9, STRESS PERIOD      1
 UBDSV06 SAVING             UZET IN MODEL GWF_1            PACKAGE UZF-1           CONNECTED TO MODEL GWF_1            PACKAGE UZF-1            ON UNIT   1014 AT TIME STEP      9, STRESS PERIOD      1
 UBDSV06 SAVING          STORAGE IN MODEL GWF_1            PACKAGE UZF-1           CONNECTED TO MODEL GWF_1            PACKAGE UZF-1            ON UNIT   1014 AT TIME STEP      9, STRESS PERIOD      1

 CHD PACKAGE (CHD-1) FLOW RATES   PERIOD      1   STEP        9
 -----------------------------------------------
   NUMBER   CELLID                    RATE      
 -----------------------------------------------
     1      (3,1,1)               0.0000000     
     2      (3,1,10)              0.0000000     
 -----------------------------------------------




 UZF-GWRCH PACKAGE (UZF-1) FLOW RATES   PERIOD      1   STEP        9
 ----------------------------------------------------------------------------------------
   NUMBER   CELLID                    RATE       NAME                                    
 ----------------------------------------------------------------------------------------
     1      (1,1,2)               0.0000000      UZF01                                   
     2      (1,1,3)               0.0000000      UZF02                                   
     3      (1,1,4)               0.0000000      UZF03                                   
     4      (1,1,5)               0.0000000      UZF04                                   
     5      (1,1,6)               0.0000000      UZF05                                   
     6      (1,1,7)               0.0000000      UZF06                                   
     7      (1,1,8)               0.0000000      UZF07                                   
     8      (1,1,9)               0.0000000      UZF08                                   
     9      (2,1,2)               0.0000000      UZF08                                   
     10     (2,1,3)               0.0000000      UZF10                                   
     11     (2,1,4)               0.0000000      UZF11                                   
     12     (2,1,5)               0.0000000      UZF12                                   
     13     (2,1,6)               0.0000000      UZF13                                   
     14     (2,1,7)               0.0000000      UZF14                                   
     15     (2,1,8)               0.0000000      UZF15                                   
     16     (2,1,9)               0.0000000      UZF16                                   
     17     (3,1,2)               0.0000000      UZF17                                   
     18     (3,1,3)               0.0000000      UZF18                                   
     19     (3,1,4)               0.0000000      UZF19                                   
     20     (3,1,5)               0.0000000      UZF20                                   
     21     (3,1,6)               0.0000000      UZF21                                   
     22     (3,1,7)               0.0000000      UZF22                                   
     23     (3,1,8)               0.0000000      UZF23                                   
     24     (3,1,9)               0.0000000      UZF24                                   
 ----------------------------------------------------------------------------------------




 UZF-GWD PACKAGE (UZF-1) FLOW RATES   PERIOD      1   STEP        9
 ----------------------------------------------------------------------------------------
   NUMBER   CELLID                    RATE       NAME                                    
 ----------------------------------------------------------------------------------------
     1      (1,1,2)               0.0000000      UZF01                                   
     2      (1,1,3)               0.0000000      UZF02                                   
     3      (1,1,4)               0.0000000      UZF03                                   
     4      (1,1,5)               0.0000000      UZF04                                   
     5      (1,1,6)               0.0000000      UZF05                                   
     6      (1,1,7)               0.0000000      UZF06                                   
     7      (1,1,8)               0.0000000      UZF07                                   
     8      (1,1,9)               0.0000000      UZF08                                   
     9      (2,1,2)               0.0000000      UZF08                                   
     10     (2,1,3)               0.0000000      UZF10                                   
     11     (2,1,4)               0.0000000      UZF11                                   
     12     (2,1,5)               0.0000000      UZF12                                   
     13     (2,1,6)               0.0000000      UZF13                                   
     14     (2,1,7)               0.0000000      UZF14                                   
     15     (2,1,8)               0.0000000      UZF15                                   
     16     (2,1,9)               0.0000000      UZF16                                   
     17     (3,1,2)               0.0000000      UZF17                                   
     18     (3,1,3)               0.0000000      UZF18                                   
     19     (3,1,4)               0.0000000      UZF19                                   
     20     (3,1,5)               0.0000000      UZF20                                   
     21     (3,1,6)               0.0000000      UZF21                                   
     22     (3,1,7)               0.0000000      UZF22                                   
     23     (3,1,8)               0.0000000      UZF23                                   
     24     (3,1,9)               0.0000000      UZF24                                   
 ----------------------------------------------------------------------------------------




 UZF-GWET PACKAGE (UZF-1) FLOW RATES   PERIOD      1   STEP        9
 ----------------------------------------------------------------------------------------
   NUMBER   CELLID                    RATE       NAME                                    
 ----------------------------------------------------------------------------------------
     1      (1,1,2)               0.0000000      UZF01                                   
     2      (1,1,3)               0.0000000      UZF02                                   
     3      (1,1,4)               0.0000000      UZF03                                   
     4      (1,1,5)               0.0000000      UZF04                                   
     5      (1,1,6)               0.0000000      UZF05                                   
     6      (1,1,7)               0.0000000      UZF06                                   
     7      (1,1,8)               0.0000000      UZF07                                   
     8      (1,1,9)               0.0000000      UZF08                                   
     9      (2,1,2)               0.0000000      UZF08                                   
     10     (2,1,3)               0.0000000      UZF10                                   
     11     (2,1,4)               0.0000000      UZF11                                   
     12     (2,1,5)               0.0000000      UZF12                                   
     13     (2,1,6)               0.0000000      UZF13                                   
     14     (2,1,7)               0.0000000      UZF14                                   
     15     (2,1,8)               0.0000000      UZF15                                   
     16     (2,1,9)               0.0000000      UZF16                                   
     17     (3,1,2)               0.0000000      UZF17                                   
     18     (3,1,3)               0.0000000      UZF18                                   
     19     (3,1,4)               0.0000000      UZF19                                   
     20     (3,1,5)               0.0000000      UZF20                                   
     21     (3,1,6)               0.0000000      UZF21                                   
     22     (3,1,7)               0.0000000      UZF22                                   
     23     (3,1,8)               0.0000000      UZF23                                   
     24     (3,1,9)               0.0000000      UZF24                                   
 ----------------------------------------------------------------------------------------




 UZF-1 PACKAGE - SUMMARY OF FLOWS FOR EACH CONTROL VOLUME   PERIOD      1   STEP        9
 ----------------------------------------------------------------------------------------------------------------------------------------------------
                                                                                                                                           PERCENT   
   NUMBER   CELLID                  INFLOW      OUTFLOW        GWF      INFILTRATION   REJ INF        UZET       STORAGE      IN - OUT    DIFFERENCE 
 ----------------------------------------------------------------------------------------------------------------------------------------------------
     1      (1,1,2)               0.0000       0.0000       0.0000       1000.0       0.0000      -4.07578E-02 -999.96      -2.27374E-12 -2.27374E-13
     2      (1,1,3)               0.0000       0.0000       0.0000       1000.0       0.0000      -4.07578E-02 -999.96      -2.27374E-12 -2.27374E-13
     3      (1,1,4)               0.0000       0.0000       0.0000       1000.0       0.0000      -4.07578E-02 -999.96      -2.27374E-12 -2.27374E-13
     4      (1,1,5)               0.0000       0.0000       0.0000       1000.0       0.0000      -4.07578E-02 -999.96      -2.27374E-12 -2.27374E-13
     5      (1,1,6)               0.0000       0.0000       0.0000       1000.0       0.0000      -4.07578E-02 -999.96      -2.27374E-12 -2.27374E-13
     6      (1,1,7)               0.0000       0.0000       0.0000       1000.0       0.0000      -4.07578E-02 -999.96      -2.27374E-12 -2.27374E-13
     7      (1,1,8)               0.0000       0.0000       0.0000       1000.0       0.0000      -4.07578E-02 -999.96      -2.27374E-12 -2.27374E-13
     8      (1,1,9)               0.0000       0.0000       0.0000       1000.0       0.0000      -4.07578E-02 -999.96      -2.27374E-12 -2.27374E-13
     9      (2,1,2)               0.0000       0.0000       0.0000       0.0000       0.0000       0.0000       0.0000       0.0000       0.0000     
     10     (2,1,3)               0.0000       0.0000       0.0000       0.0000       0.0000       0.0000       0.0000       0.0000       0.0000     
     11     (2,1,4)               0.0000       0.0000       0.0000       0.0000       0.0000       0.0000       0.0000       0.0000       0.0000     
     12     (2,1,5)               0.0000       0.0000       0.0000       0.0000       0.0000       0.0000       0.0000       0.0000       0.0000     
     13     (2,1,6)               0.0000       0.0000       0.0000       0.0000       0.0000       0.0000       0.0000       0.0000       0.0000     
     14     (2,1,7)               0.0000       0.0000       0.0000       0.0000       0.0000       0.0000       0.0000       0.0000       0.0000     
     15     (2,1,8)               0.0000       0.0000       0.0000       0.0000       0.0000       0.0000       0.0000       0.0000       0.0000     
     16     (2,1,9)               0.0000       0.0000       0.0000       0.0000       0.0000       0.0000       0.0000       0.0000       0.0000     
     17     (3,1,2)               0.0000       0.0000       0.0000       0.0000       0.0000       0.0000       0.0000       0.0000       0.0000     
     18     (3,1,3)               0.0000       0.0000       0.0000       0.0000       0.0000       0.0000       0.0000       0.0000       0.0000     
     19     (3,1,4)               0.0000       0.0000       0.0000       0.0000       0.0000       0.0000       0.0000       0.0000       0.0000     
     20     (3,1,5)               0.0000       0.0000       0.0000       0.0000       0.0000       0.0000       0.0000       0.0000       0.0000     
     21     (3,1,6)               0.0000       0.0000       0.0000       0.0000       0.0000       0.0000       0.0000       0.0000       0.0000     
     22     (3,1,7)               0.0000       0.0000       0.0000       0.0000       0.0000       0.0000       0.0000       0.0000       0.0000     
     23     (3,1,8)               0.0000       0.0000       0.0000       0.0000       0.0000       0.0000       0.0000       0.0000       0.0000     
     24     (3,1,9)               0.0000       0.0000       0.0000       0.0000       0.0000       0.0000       0.0000       0.0000       0.0000     
 ----------------------------------------------------------------------------------------------------------------------------------------------------


1
  HEAD IN LAYER   1 AT END OF TIME STEP   9 IN STRESS PERIOD    1
  ---------------------------------------------------------------------------

            1           2           3           4           5           6           7           8           9          10
 ........................................................................................................................
   1   -25.00      -25.00      -25.00      -25.00      -25.00      -25.00      -25.00      -25.00      -25.00      -25.00    
1
  HEAD IN LAYER   2 AT END OF TIME STEP   9 IN STRESS PERIOD    1
  ---------------------------------------------------------------------------

            1           2           3           4           5           6           7           8           9          10
 ........................................................................................................................
   1   -25.00      -25.00      -25.00      -25.00      -25.00      -25.00      -25.00      -25.00      -25.00      -25.00    
1
  HEAD IN LAYER   3 AT END OF TIME STEP   9 IN STRESS PERIOD    1
  ---------------------------------------------------------------------------

            1           2           3           4           5           6           7           8           9          10
 ........................................................................................................................
   1   -25.00      -25.00      -25.00      -25.00      -25.00      -25.00      -25.00      -25.00      -25.00      -25.00    

 HEAD WILL BE SAVED ON UNIT 1022 AT END OF TIME STEP    9, STRESS PERIOD    1


  UZF-1 BUDGET FOR ENTIRE MODEL AT END OF TIME STEP    9, STRESS PERIOD   1
  ------------------------------------------------------------------------------

     CUMULATIVE UZF-1      L**3       RATES FOR THIS TIME STEP      L**3/T
     ------------------                 ------------------------

           IN:                                      IN:
           ---                                      ---
                 GWF =           0.0000                   GWF =           0.0000
        INFILTRATION =      144000.0000          INFILTRATION =        8000.0000
             REJ-INF =           0.0000               REJ-INF =           0.0000
                UZET =           0.0000                  UZET =           0.0000
             STORAGE =           0.0000               STORAGE =           0.0000

            TOTAL IN =      144000.0000              TOTAL IN =        8000.0000

          OUT:                                     OUT:
          ----                                     ----
                 GWF =           0.0000                   GWF =           0.0000
        INFILTRATION =           0.0000          INFILTRATION =           0.0000
             REJ-INF =           0.0000               REJ-INF =           0.0000
                UZET =           2.3612                  UZET =           0.3261
             STORAGE =      143997.6388               STORAGE =        7999.6739

           TOTAL OUT =      144000.0000             TOTAL OUT =        8000.0000

            IN - OUT =       1.7987E-06              IN - OUT =      -1.9099E-11

 PERCENT DISCREPANCY =           0.00     PERCENT DISCREPANCY =          -0.00



  VOLUME BUDGET FOR ENTIRE MODEL AT END OF TIME STEP    9, STRESS PERIOD   1
  ---------------------------------------------------------------------------------------------------

     CUMULATIVE VOLUME      L**3       RATES FOR THIS TIME STEP      L**3/T          PACKAGE NAME    
     ------------------                 ------------------------                     ----------------

           IN:                                      IN:
           ---                                      ---
              STO-SS =           0.0000                STO-SS =           0.0000     STORAGE         
              STO-SY =           0.0000                STO-SY =           0.0000     STORAGE         
                 CHD =           0.0000                   CHD =           0.0000     CHD-1           
           UZF-GWRCH =           0.0000             UZF-GWRCH =           0.0000     UZF-1           
             UZF-GWD =           0.0000               UZF-GWD =           0.0000     UZF-1           
            UZF-GWET =           0.0000              UZF-GWET =           0.0000     UZF-1           

            TOTAL IN =           0.0000              TOTAL IN =           0.0000

          OUT:                                     OUT:
          ----                                     ----
              STO-SS =           0.0000                STO-SS =           0.0000     STORAGE         
              STO-SY =           0.0000                STO-SY =           0.0000     STORAGE         
                 CHD =           0.0000                   CHD =           0.0000     CHD-1           
           UZF-GWRCH =           0.0000             UZF-GWRCH =           0.0000     UZF-1           
             UZF-GWD =           0.0000               UZF-GWD =           0.0000     UZF-1           
            UZF-GWET =           0.0000              UZF-GWET =           0.0000     UZF-1           

           TOTAL OUT =           0.0000             TOTAL OUT =           0.0000

            IN - OUT =           0.0000              IN - OUT =           0.0000

 PERCENT DISCREPANCY =           0.00     PERCENT DISCREPANCY =           0.00




         TIME SUMMARY AT END OF TIME STEP    9 IN STRESS PERIOD    1
                    SECONDS     MINUTES      HOURS       DAYS        YEARS
                    -----------------------------------------------------------
   TIME STEP LENGTH 1.72800E+05  2880.0      48.000      2.0000     5.47570E-03
 STRESS PERIOD TIME 1.55520E+06  25920.      432.00      18.000     4.92813E-02
         TOTAL TIME 1.55520E+06  25920.      432.00      18.000     4.92813E-02


end timestep


start timestep kper="1" kstp="10" mode="normal"

 UBDSV1 SAVING     FLOW-JA-FACE ON UNIT   1020 AT TIME STEP     10, STRESS PERIOD      1
 UBDSV06 SAVING     FLOW-JA-FACE IN MODEL GWF_1            PACKAGE UZF-1           CONNECTED TO MODEL GWF_1            PACKAGE UZF-1            ON UNIT   1014 AT TIME STEP     10, STRESS PERIOD      1
 UBDSV06 SAVING              GWF IN MODEL GWF_1            PACKAGE UZF-1           CONNECTED TO MODEL GWF_1            PACKAGE GWF_1            ON UNIT   1014 AT TIME STEP     10, STRESS PERIOD      1
 UBDSV06 SAVING     INFILTRATION IN MODEL GWF_1            PACKAGE UZF-1           CONNECTED TO MODEL GWF_1            PACKAGE UZF-1            ON UNIT   1014 AT TIME STEP     10, STRESS PERIOD      1
 UBDSV06 SAVING          REJ-INF IN MODEL GWF_1            PACKAGE UZF-1           CONNECTED TO MODEL GWF_1            PACKAGE UZF-1            ON UNIT   1014 AT TIME STEP     10, STRESS PERIOD      1
 UBDSV06 SAVING             UZET IN MODEL GWF_1            PACKAGE UZF-1           CONNECTED TO MODEL GWF_1            PACKAGE UZF-1            ON UNIT   1014 AT TIME STEP     10, STRESS PERIOD      1
 UBDSV06 SAVING          STORAGE IN MODEL GWF_1            PACKAGE UZF-1           CONNECTED TO MODEL GWF_1            PACKAGE UZF-1            ON UNIT   1014 AT TIME STEP     10, STRESS PERIOD      1

 CHD PACKAGE (CHD-1) FLOW RATES   PERIOD      1   STEP       10
 -----------------------------------------------
   NUMBER   CELLID                    RATE      
 -----------------------------------------------
     1      (3,1,1)               0.0000000     
     2      (3,1,10)              0.0000000     
 -----------------------------------------------




 UZF-GWRCH PACKAGE (UZF-1) FLOW RATES   PERIOD      1   STEP       10
 ----------------------------------------------------------------------------------------
   NUMBER   CELLID                    RATE       NAME                                    
 ----------------------------------------------------------------------------------------
     1      (1,1,2)               0.0000000      UZF01                                   
     2      (1,1,3)               0.0000000      UZF02                                   
     3      (1,1,4)               0.0000000      UZF03                                   
     4      (1,1,5)               0.0000000      UZF04                                   
     5      (1,1,6)               0.0000000      UZF05                                   
     6      (1,1,7)               0.0000000      UZF06                                   
     7      (1,1,8)               0.0000000      UZF07                                   
     8      (1,1,9)               0.0000000      UZF08                                   
     9      (2,1,2)               0.0000000      UZF08                                   
     10     (2,1,3)               0.0000000      UZF10                                   
     11     (2,1,4)               0.0000000      UZF11                                   
     12     (2,1,5)               0.0000000      UZF12                                   
     13     (2,1,6)               0.0000000      UZF13                                   
     14     (2,1,7)               0.0000000      UZF14                                   
     15     (2,1,8)               0.0000000      UZF15                                   
     16     (2,1,9)               0.0000000      UZF16                                   
     17     (3,1,2)               0.0000000      UZF17                                   
     18     (3,1,3)               0.0000000      UZF18                                   
     19     (3,1,4)               0.0000000      UZF19                                   
     20     (3,1,5)               0.0000000      UZF20                                   
     21     (3,1,6)               0.0000000      UZF21                                   
     22     (3,1,7)               0.0000000      UZF22                                   
     23     (3,1,8)               0.0000000      UZF23                                   
     24     (3,1,9)               0.0000000      UZF24                                   
 ----------------------------------------------------------------------------------------




 UZF-GWD PACKAGE (UZF-1) FLOW RATES   PERIOD      1   STEP       10
 ----------------------------------------------------------------------------------------
   NUMBER   CELLID                    RATE       NAME                                    
 ----------------------------------------------------------------------------------------
     1      (1,1,2)               0.0000000      UZF01                                   
     2      (1,1,3)               0.0000000      UZF02                                   
     3      (1,1,4)               0.0000000      UZF03                                   
     4      (1,1,5)               0.0000000      UZF04                                   
     5      (1,1,6)               0.0000000      UZF05                                   
     6      (1,1,7)               0.0000000      UZF06                                   
     7      (1,1,8)               0.0000000      UZF07                                   
     8      (1,1,9)               0.0000000      UZF08                                   
     9      (2,1,2)               0.0000000      UZF08                                   
     10     (2,1,3)               0.0000000      UZF10                                   
     11     (2,1,4)               0.0000000      UZF11                                   
     12     (2,1,5)               0.0000000      UZF12                                   
     13     (2,1,6)               0.0000000      UZF13                                   
     14     (2,1,7)               0.0000000      UZF14                                   
     15     (2,1,8)               0.0000000      UZF15                                   
     16     (2,1,9)               0.0000000      UZF16                                   
     17     (3,1,2)               0.0000000      UZF17                                   
     18     (3,1,3)               0.0000000      UZF18                                   
     19     (3,1,4)               0.0000000      UZF19                                   
     20     (3,1,5)               0.0000000      UZF20                                   
     21     (3,1,6)               0.0000000      UZF21                                   
     22     (3,1,7)               0.0000000      UZF22                                   
     23     (3,1,8)               0.0000000      UZF23                                   
     24     (3,1,9)               0.0000000      UZF24                                   
 ----------------------------------------------------------------------------------------




 UZF-GWET PACKAGE (UZF-1) FLOW RATES   PERIOD      1   STEP       10
 ----------------------------------------------------------------------------------------
   NUMBER   CELLID                    RATE       NAME                                    
 ----------------------------------------------------------------------------------------
     1      (1,1,2)               0.0000000      UZF01                                   
     2      (1,1,3)               0.0000000      UZF02                                   
     3      (1,1,4)               0.0000000      UZF03                                   
     4      (1,1,5)               0.0000000      UZF04                                   
     5      (1,1,6)               0.0000000      UZF05                                   
     6      (1,1,7)               0.0000000      UZF06                                   
     7      (1,1,8)               0.0000000      UZF07                                   
     8      (1,1,9)               0.0000000      UZF08                                   
     9      (2,1,2)               0.0000000      UZF08                                   
     10     (2,1,3)               0.0000000      UZF10                                   
     11     (2,1,4)               0.0000000      UZF11                                   
     12     (2,1,5)               0.0000000      UZF12                                   
     13     (2,1,6)               0.0000000      UZF13                                   
     14     (2,1,7)               0.0000000      UZF14                                   
     15     (2,1,8)               0.0000000      UZF15                                   
     16     (2,1,9)               0.0000000      UZF16                                   
     17     (3,1,2)               0.0000000      UZF17                                   
     18     (3,1,3)               0.0000000      UZF18                                   
     19     (3,1,4)               0.0000000      UZF19                                   
     20     (3,1,5)               0.0000000      UZF20                                   
     21     (3,1,6)               0.0000000      UZF21                                   
     22     (3,1,7)               0.0000000      UZF22                                   
     23     (3,1,8)               0.0000000      UZF23                                   
     24     (3,1,9)               0.0000000      UZF24                                   
 ----------------------------------------------------------------------------------------




 UZF-1 PACKAGE - SUMMARY OF FLOWS FOR EACH CONTROL VOLUME   PERIOD      1   STEP       10
 ----------------------------------------------------------------------------------------------------------------------------------------------------
                                                                                                                                           PERCENT   
   NUMBER   CELLID                  INFLOW      OUTFLOW        GWF      INFILTRATION   REJ INF        UZET       STORAGE      IN - OUT    DIFFERENCE 
 ----------------------------------------------------------------------------------------------------------------------------------------------------
     1      (1,1,2)               0.0000       0.0000       0.0000       1000.0       0.0000      -4.77850E-02 -999.95       5.68434E-13  5.68434E-14
     2      (1,1,3)               0.0000       0.0000       0.0000       1000.0       0.0000      -4.77850E-02 -999.95       5.68434E-13  5.68434E-14
     3      (1,1,4)               0.0000       0.0000       0.0000       1000.0       0.0000      -4.77850E-02 -999.95       5.68434E-13  5.68434E-14
     4      (1,1,5)               0.0000       0.0000       0.0000       1000.0       0.0000      -4.77850E-02 -999.95       5.68434E-13  5.68434E-14
     5      (1,1,6)               0.0000       0.0000       0.0000       1000.0       0.0000      -4.77850E-02 -999.95       5.68434E-13  5.68434E-14
     6      (1,1,7)               0.0000       0.0000       0.0000       1000.0       0.0000      -4.77850E-02 -999.95       5.68434E-13  5.68434E-14
     7      (1,1,8)               0.0000       0.0000       0.0000       1000.0       0.0000      -4.77850E-02 -999.95       5.68434E-13  5.68434E-14
     8      (1,1,9)               0.0000       0.0000       0.0000       1000.0       0.0000      -4.77850E-02 -999.95       5.68434E-13  5.68434E-14
     9      (2,1,2)               0.0000       0.0000       0.0000       0.0000       0.0000       0.0000       0.0000       0.0000       0.0000     
     10     (2,1,3)               0.0000       0.0000       0.0000       0.0000       0.0000       0.0000       0.0000       0.0000       0.0000     
     11     (2,1,4)               0.0000       0.0000       0.0000       0.0000       0.0000       0.0000       0.0000       0.0000       0.0000     
     12     (2,1,5)               0.0000       0.0000       0.0000       0.0000       0.0000       0.0000       0.0000       0.0000       0.0000     
     13     (2,1,6)               0.0000       0.0000       0.0000       0.0000       0.0000       0.0000       0.0000       0.0000       0.0000     
     14     (2,1,7)               0.0000       0.0000       0.0000       0.0000       0.0000       0.0000       0.0000       0.0000       0.0000     
     15     (2,1,8)               0.0000       0.0000       0.0000       0.0000       0.0000       0.0000       0.0000       0.0000       0.0000     
     16     (2,1,9)               0.0000       0.0000       0.0000       0.0000       0.0000       0.0000       0.0000       0.0000       0.0000     
     17     (3,1,2)               0.0000       0.0000       0.0000       0.0000       0.0000       0.0000       0.0000       0.0000       0.0000     
     18     (3,1,3)               0.0000       0.0000       0.0000       0.0000       0.0000       0.0000       0.0000       0.0000       0.0000     
     19     (3,1,4)               0.0000       0.0000       0.0000       0.0000       0.0000       0.0000       0.0000       0.0000       0.0000     
     20     (3,1,5)               0.0000       0.0000       0.0000       0.0000       0.0000       0.0000       0.0000       0.0000       0.0000     
     21     (3,1,6)               0.0000       0.0000       0.0000       0.0000       0.0000       0.0000       0.0000       0.0000       0.0000     
     22     (3,1,7)               0.0000       0.0000       0.0000       0.0000       0.0000       0.0000       0.0000       0.0000       0.0000     
     23     (3,1,8)               0.0000       0.0000       0.0000       0.0000       0.0000       0.0000       0.0000       0.0000       0.0000     
     24     (3,1,9)               0.0000       0.0000       0.0000       0.0000       0.0000       0.0000       0.0000       0.0000       0.0000     
 ----------------------------------------------------------------------------------------------------------------------------------------------------


1
  HEAD IN LAYER   1 AT END OF TIME STEP  10 IN STRESS PERIOD    1
  ---------------------------------------------------------------------------

            1           2           3           4           5           6           7           8           9          10
 ........................................................................................................................
   1   -25.00      -25.00      -25.00      -25.00      -25.00      -25.00      -25.00      -25.00      -25.00      -25.00    
1
  HEAD IN LAYER   2 AT END OF TIME STEP  10 IN STRESS PERIOD    1
  ---------------------------------------------------------------------------

            1           2           3           4           5           6           7           8           9          10
 ........................................................................................................................
   1   -25.00      -25.00      -25.00      -25.00      -25.00      -25.00      -25.00      -25.00      -25.00      -25.00    
1
  HEAD IN LAYER   3 AT END OF TIME STEP  10 IN STRESS PERIOD    1
  ---------------------------------------------------------------------------

            1           2           3           4           5           6           7           8           9          10
 ........................................................................................................................
   1   -25.00      -25.00      -25.00      -25.00      -25.00      -25.00      -25.00      -25.00      -25.00      -25.00    

 HEAD WILL BE SAVED ON UNIT 1022 AT END OF TIME STEP   10, STRESS PERIOD    1


  UZF-1 BUDGET FOR ENTIRE MODEL AT END OF TIME STEP   10, STRESS PERIOD   1
  ------------------------------------------------------------------------------

     CUMULATIVE UZF-1      L**3       RATES FOR THIS TIME STEP      L**3/T
     ------------------                 ------------------------

           IN:                                      IN:
           ---                                      ---
                 GWF =           0.0000                   GWF =           0.0000
        INFILTRATION =      160000.0000          INFILTRATION =        8000.0000
             REJ-INF =           0.0000               REJ-INF =           0.0000
                UZET =           0.0000                  UZET =           0.0000
             STORAGE =           0.0000               STORAGE =           0.0000

            TOTAL IN =      160000.0000              TOTAL IN =        8000.0000

          OUT:                                     OUT:
          ----                                     ----
                 GWF =           0.0000                   GWF =           0.0000
        INFILTRATION =           0.0000          INFILTRATION =           0.0000
             REJ-INF =           0.0000               REJ-INF =           0.0000
                UZET =           3.1257                  UZET =           0.3823
             STORAGE =      159996.8743               STORAGE =        7999.6177

           TOTAL OUT =      160000.0000             TOTAL OUT =        8000.0000

            IN - OUT =       1.7987E-06              IN - OUT =       5.4570E-12

 PERCENT DISCREPANCY =           0.00     PERCENT DISCREPANCY =           0.00



  VOLUME BUDGET FOR ENTIRE MODEL AT END OF TIME STEP   10, STRESS PERIOD   1
  ---------------------------------------------------------------------------------------------------

     CUMULATIVE VOLUME      L**3       RATES FOR THIS TIME STEP      L**3/T          PACKAGE NAME    
     ------------------                 ------------------------                     ----------------

           IN:                                      IN:
           ---                                      ---
              STO-SS =           0.0000                STO-SS =           0.0000     STORAGE         
              STO-SY =           0.0000                STO-SY =           0.0000     STORAGE         
                 CHD =           0.0000                   CHD =           0.0000     CHD-1           
           UZF-GWRCH =           0.0000             UZF-GWRCH =           0.0000     UZF-1           
             UZF-GWD =           0.0000               UZF-GWD =           0.0000     UZF-1           
            UZF-GWET =           0.0000              UZF-GWET =           0.0000     UZF-1           

            TOTAL IN =           0.0000              TOTAL IN =           0.0000

          OUT:                                     OUT:
          ----                                     ----
              STO-SS =           0.0000                STO-SS =           0.0000     STORAGE         
              STO-SY =           0.0000                STO-SY =           0.0000     STORAGE         
                 CHD =           0.0000                   CHD =           0.0000     CHD-1           
           UZF-GWRCH =           0.0000             UZF-GWRCH =           0.0000     UZF-1           
             UZF-GWD =           0.0000               UZF-GWD =           0.0000     UZF-1           
            UZF-GWET =           0.0000              UZF-GWET =           0.0000     UZF-1           

           TOTAL OUT =           0.0000             TOTAL OUT =           0.0000

            IN - OUT =           0.0000              IN - OUT =           0.0000

 PERCENT DISCREPANCY =           0.00     PERCENT DISCREPANCY =           0.00




         TIME SUMMARY AT END OF TIME STEP   10 IN STRESS PERIOD    1
                    SECONDS     MINUTES      HOURS       DAYS        YEARS
                    -----------------------------------------------------------
   TIME STEP LENGTH 1.72800E+05  2880.0      48.000      2.0000     5.47570E-03
 STRESS PERIOD TIME 1.72800E+06  28800.      480.00      20.000     5.47570E-02
         TOTAL TIME 1.72800E+06  28800.      480.00      20.000     5.47570E-02


end timestep


start timestep kper="2" kstp="1" mode="normal"


 END OF FILE DETECTED IN OUTPUT CONTROL.
 CURRENT OUTPUT CONTROL SETTINGS WILL BE 
 REPEATED UNTIL THE END OF THE SIMULATION.

 OUTPUT CONTROL FOR STRESS PERIOD 2 IS REPEATED USING SETTINGS FROM A PREVIOUS STRESS PERIOD.


 PROCESSING STORAGE PERIOD DATA
 END PROCESSING STORAGE PERIOD DATA


 STRESS PERIOD 2 IS TRANSIENT


 REUSING CHDS FROM LAST STRESS PERIOD

 UZF CELLS PACKAGE (UZF-1) DATA FOR PERIOD      2
 ----------------------------------------------------------------------------------------------------------------------------
   NUMBER   CELLID                   FINF         PET         EXTDEP       EXTWC     BOUNDNAME                               
 ----------------------------------------------------------------------------------------------------------------------------
     1      (1,1,2)               1.00000E-02  1.00000E-06  15.000       7.00000E-02 UZF01                                   
     2      (1,1,3)               1.00000E-02  1.00000E-06  15.000       7.00000E-02 UZF02                                   
     3      (1,1,4)               1.00000E-02  1.00000E-06  15.000       7.00000E-02 UZF03                                   
     4      (1,1,5)               1.00000E-02  1.00000E-06  15.000       7.00000E-02 UZF04                                   
     5      (1,1,6)               1.00000E-02  1.00000E-06  15.000       7.00000E-02 UZF05                                   
     6      (1,1,7)               1.00000E-02  1.00000E-06  15.000       7.00000E-02 UZF06                                   
     7      (1,1,8)               1.00000E-02  1.00000E-06  15.000       7.00000E-02 UZF07                                   
     8      (1,1,9)               1.00000E-02  1.00000E-06  15.000       7.00000E-02 UZF08                                   
     9      (2,1,2)               0.0000       1.00000E-06  15.000       7.00000E-02 UZF08                                   
     10     (2,1,3)               0.0000       1.00000E-06  15.000       7.00000E-02 UZF10                                   
     11     (2,1,4)               0.0000       1.00000E-06  15.000       7.00000E-02 UZF11                                   
     12     (2,1,5)               0.0000       1.00000E-06  15.000       7.00000E-02 UZF12                                   
     13     (2,1,6)               0.0000       1.00000E-06  15.000       7.00000E-02 UZF13                                   
     14     (2,1,7)               0.0000       1.00000E-06  15.000       7.00000E-02 UZF14                                   
     15     (2,1,8)               0.0000       1.00000E-06  15.000       7.00000E-02 UZF15                                   
     16     (2,1,9)               0.0000       1.00000E-06  15.000       7.00000E-02 UZF16                                   
 ----------------------------------------------------------------------------------------------------------------------------


 UBDSV1 SAVING     FLOW-JA-FACE ON UNIT   1020 AT TIME STEP      1, STRESS PERIOD      2
 UBDSV06 SAVING     FLOW-JA-FACE IN MODEL GWF_1            PACKAGE UZF-1           CONNECTED TO MODEL GWF_1            PACKAGE UZF-1            ON UNIT   1014 AT TIME STEP      1, STRESS PERIOD      2
 UBDSV06 SAVING              GWF IN MODEL GWF_1            PACKAGE UZF-1           CONNECTED TO MODEL GWF_1            PACKAGE GWF_1            ON UNIT   1014 AT TIME STEP      1, STRESS PERIOD      2
 UBDSV06 SAVING     INFILTRATION IN MODEL GWF_1            PACKAGE UZF-1           CONNECTED TO MODEL GWF_1            PACKAGE UZF-1            ON UNIT   1014 AT TIME STEP      1, STRESS PERIOD      2
 UBDSV06 SAVING          REJ-INF IN MODEL GWF_1            PACKAGE UZF-1           CONNECTED TO MODEL GWF_1            PACKAGE UZF-1            ON UNIT   1014 AT TIME STEP      1, STRESS PERIOD      2
 UBDSV06 SAVING             UZET IN MODEL GWF_1            PACKAGE UZF-1           CONNECTED TO MODEL GWF_1            PACKAGE UZF-1            ON UNIT   1014 AT TIME STEP      1, STRESS PERIOD      2
 UBDSV06 SAVING          STORAGE IN MODEL GWF_1            PACKAGE UZF-1           CONNECTED TO MODEL GWF_1            PACKAGE UZF-1            ON UNIT   1014 AT TIME STEP      1, STRESS PERIOD      2

 CHD PACKAGE (CHD-1) FLOW RATES   PERIOD      2   STEP        1
 -----------------------------------------------
   NUMBER   CELLID                    RATE      
 -----------------------------------------------
     1      (3,1,1)               0.0000000     
     2      (3,1,10)              0.0000000     
 -----------------------------------------------




 UZF-GWRCH PACKAGE (UZF-1) FLOW RATES   PERIOD      2   STEP        1
 ----------------------------------------------------------------------------------------
   NUMBER   CELLID                    RATE       NAME                                    
 ----------------------------------------------------------------------------------------
     1      (1,1,2)               0.0000000      UZF01                                   
     2      (1,1,3)               0.0000000      UZF02                                   
     3      (1,1,4)               0.0000000      UZF03                                   
     4      (1,1,5)               0.0000000      UZF04                                   
     5      (1,1,6)               0.0000000      UZF05                                   
     6      (1,1,7)               0.0000000      UZF06                                   
     7      (1,1,8)               0.0000000      UZF07                                   
     8      (1,1,9)               0.0000000      UZF08                                   
     9      (2,1,2)               0.0000000      UZF08                                   
     10     (2,1,3)               0.0000000      UZF10                                   
     11     (2,1,4)               0.0000000      UZF11                                   
     12     (2,1,5)               0.0000000      UZF12                                   
     13     (2,1,6)               0.0000000      UZF13                                   
     14     (2,1,7)               0.0000000      UZF14                                   
     15     (2,1,8)               0.0000000      UZF15                                   
     16     (2,1,9)               0.0000000      UZF16                                   
     17     (3,1,2)               0.0000000      UZF17                                   
     18     (3,1,3)               0.0000000      UZF18                                   
     19     (3,1,4)               0.0000000      UZF19                                   
     20     (3,1,5)               0.0000000      UZF20                                   
     21     (3,1,6)               0.0000000      UZF21                                   
     22     (3,1,7)               0.0000000      UZF22                                   
     23     (3,1,8)               0.0000000      UZF23                                   
     24     (3,1,9)               0.0000000      UZF24                                   
 ----------------------------------------------------------------------------------------




 UZF-GWD PACKAGE (UZF-1) FLOW RATES   PERIOD      2   STEP        1
 ----------------------------------------------------------------------------------------
   NUMBER   CELLID                    RATE       NAME                                    
 ----------------------------------------------------------------------------------------
     1      (1,1,2)               0.0000000      UZF01                                   
     2      (1,1,3)               0.0000000      UZF02                                   
     3      (1,1,4)               0.0000000      UZF03                                   
     4      (1,1,5)               0.0000000      UZF04                                   
     5      (1,1,6)               0.0000000      UZF05                                   
     6      (1,1,7)               0.0000000      UZF06                                   
     7      (1,1,8)               0.0000000      UZF07                                   
     8      (1,1,9)               0.0000000      UZF08                                   
     9      (2,1,2)               0.0000000      UZF08                                   
     10     (2,1,3)               0.0000000      UZF10                                   
     11     (2,1,4)               0.0000000      UZF11                                   
     12     (2,1,5)               0.0000000      UZF12                                   
     13     (2,1,6)               0.0000000      UZF13                                   
     14     (2,1,7)               0.0000000      UZF14                                   
     15     (2,1,8)               0.0000000      UZF15                                   
     16     (2,1,9)               0.0000000      UZF16                                   
     17     (3,1,2)               0.0000000      UZF17                                   
     18     (3,1,3)               0.0000000      UZF18                                   
     19     (3,1,4)               0.0000000      UZF19                                   
     20     (3,1,5)               0.0000000      UZF20                                   
     21     (3,1,6)               0.0000000      UZF21                                   
     22     (3,1,7)               0.0000000      UZF22                                   
     23     (3,1,8)               0.0000000      UZF23                                   
     24     (3,1,9)               0.0000000      UZF24                                   
 ----------------------------------------------------------------------------------------




 UZF-GWET PACKAGE (UZF-1) FLOW RATES   PERIOD      2   STEP        1
 ----------------------------------------------------------------------------------------
   NUMBER   CELLID                    RATE       NAME                                    
 ----------------------------------------------------------------------------------------
     1      (1,1,2)               0.0000000      UZF01                                   
     2      (1,1,3)               0.0000000      UZF02                                   
     3      (1,1,4)               0.0000000      UZF03                                   
     4      (1,1,5)               0.0000000      UZF04                                   
     5      (1,1,6)               0.0000000      UZF05                                   
     6      (1,1,7)               0.0000000      UZF06                                   
     7      (1,1,8)               0.0000000      UZF07                                   
     8      (1,1,9)               0.0000000      UZF08                                   
     9      (2,1,2)               0.0000000      UZF08                                   
     10     (2,1,3)               0.0000000      UZF10                                   
     11     (2,1,4)               0.0000000      UZF11                                   
     12     (2,1,5)               0.0000000      UZF12                                   
     13     (2,1,6)               0.0000000      UZF13                                   
     14     (2,1,7)               0.0000000      UZF14                                   
     15     (2,1,8)               0.0000000      UZF15                                   
     16     (2,1,9)               0.0000000      UZF16                                   
     17     (3,1,2)               0.0000000      UZF17                                   
     18     (3,1,3)               0.0000000      UZF18                                   
     19     (3,1,4)               0.0000000      UZF19                                   
     20     (3,1,5)               0.0000000      UZF20                                   
     21     (3,1,6)               0.0000000      UZF21                                   
     22     (3,1,7)               0.0000000      UZF22                                   
     23     (3,1,8)               0.0000000      UZF23                                   
     24     (3,1,9)               0.0000000      UZF24                                   
 ----------------------------------------------------------------------------------------




 UZF-1 PACKAGE - SUMMARY OF FLOWS FOR EACH CONTROL VOLUME   PERIOD      2   STEP        1
 ----------------------------------------------------------------------------------------------------------------------------------------------------
                                                                                                                                           PERCENT   
   NUMBER   CELLID                  INFLOW      OUTFLOW        GWF      INFILTRATION   REJ INF        UZET       STORAGE      IN - OUT    DIFFERENCE 
 ----------------------------------------------------------------------------------------------------------------------------------------------------
     1      (1,1,2)               0.0000       0.0000       0.0000       1000.0       0.0000      -5.48121E-02 -999.95       1.93268E-12  1.93268E-13
     2      (1,1,3)               0.0000       0.0000       0.0000       1000.0       0.0000      -5.48121E-02 -999.95       1.93268E-12  1.93268E-13
     3      (1,1,4)               0.0000       0.0000       0.0000       1000.0       0.0000      -5.48121E-02 -999.95       1.93268E-12  1.93268E-13
     4      (1,1,5)               0.0000       0.0000       0.0000       1000.0       0.0000      -5.48121E-02 -999.95       1.93268E-12  1.93268E-13
     5      (1,1,6)               0.0000       0.0000       0.0000       1000.0       0.0000      -5.48121E-02 -999.95       1.93268E-12  1.93268E-13
     6      (1,1,7)               0.0000       0.0000       0.0000       1000.0       0.0000      -5.48121E-02 -999.95       1.93268E-12  1.93268E-13
     7      (1,1,8)               0.0000       0.0000       0.0000       1000.0       0.0000      -5.48121E-02 -999.95       1.93268E-12  1.93268E-13
     8      (1,1,9)               0.0000       0.0000       0.0000       1000.0       0.0000      -5.48121E-02 -999.95       1.93268E-12  1.93268E-13
     9      (2,1,2)               0.0000       0.0000       0.0000       0.0000       0.0000       0.0000       0.0000       0.0000       0.0000     
     10     (2,1,3)               0.0000       0.0000       0.0000       0.0000       0.0000       0.0000       0.0000       0.0000       0.0000     
     11     (2,1,4)               0.0000       0.0000       0.0000       0.0000       0.0000       0.0000       0.0000       0.0000       0.0000     
     12     (2,1,5)               0.0000       0.0000       0.0000       0.0000       0.0000       0.0000       0.0000       0.0000       0.0000     
     13     (2,1,6)               0.0000       0.0000       0.0000       0.0000       0.0000       0.0000       0.0000       0.0000       0.0000     
     14     (2,1,7)               0.0000       0.0000       0.0000       0.0000       0.0000       0.0000       0.0000       0.0000       0.0000     
     15     (2,1,8)               0.0000       0.0000       0.0000       0.0000       0.0000       0.0000       0.0000       0.0000       0.0000     
     16     (2,1,9)               0.0000       0.0000       0.0000       0.0000       0.0000       0.0000       0.0000       0.0000       0.0000     
     17     (3,1,2)               0.0000       0.0000       0.0000       0.0000       0.0000       0.0000       0.0000       0.0000       0.0000     
     18     (3,1,3)               0.0000       0.0000       0.0000       0.0000       0.0000       0.0000       0.0000       0.0000       0.0000     
     19     (3,1,4)               0.0000       0.0000       0.0000       0.0000       0.0000       0.0000       0.0000       0.0000       0.0000     
     20     (3,1,5)               0.0000       0.0000       0.0000       0.0000       0.0000       0.0000       0.0000       0.0000       0.0000     
     21     (3,1,6)               0.0000       0.0000       0.0000       0.0000       0.0000       0.0000       0.0000       0.0000       0.0000     
     22     (3,1,7)               0.0000       0.0000       0.0000       0.0000       0.0000       0.0000       0.0000       0.0000       0.0000     
     23     (3,1,8)               0.0000       0.0000       0.0000       0.0000       0.0000       0.0000       0.0000       0.0000       0.0000     
     24     (3,1,9)               0.0000       0.0000       0.0000       0.0000       0.0000       0.0000       0.0000       0.0000       0.0000     
 ----------------------------------------------------------------------------------------------------------------------------------------------------


1
  HEAD IN LAYER   1 AT END OF TIME STEP   1 IN STRESS PERIOD    2
  ---------------------------------------------------------------------------

            1           2           3           4           5           6           7           8           9          10
 ........................................................................................................................
   1   -25.00      -25.00      -25.00      -25.00      -25.00      -25.00      -25.00      -25.00      -25.00      -25.00    
1
  HEAD IN LAYER   2 AT END OF TIME STEP   1 IN STRESS PERIOD    2
  ---------------------------------------------------------------------------

            1           2           3           4           5           6           7           8           9          10
 ........................................................................................................................
   1   -25.00      -25.00      -25.00      -25.00      -25.00      -25.00      -25.00      -25.00      -25.00      -25.00    
1
  HEAD IN LAYER   3 AT END OF TIME STEP   1 IN STRESS PERIOD    2
  ---------------------------------------------------------------------------

            1           2           3           4           5           6           7           8           9          10
 ........................................................................................................................
   1   -25.00      -25.00      -25.00      -25.00      -25.00      -25.00      -25.00      -25.00      -25.00      -25.00    

 HEAD WILL BE SAVED ON UNIT 1022 AT END OF TIME STEP    1, STRESS PERIOD    2


  UZF-1 BUDGET FOR ENTIRE MODEL AT END OF TIME STEP    1, STRESS PERIOD   2
  ------------------------------------------------------------------------------

     CUMULATIVE UZF-1      L**3       RATES FOR THIS TIME STEP      L**3/T
     ------------------                 ------------------------

           IN:                                      IN:
           ---                                      ---
                 GWF =           0.0000                   GWF =           0.0000
        INFILTRATION =      176000.0000          INFILTRATION =        8000.0000
             REJ-INF =           0.0000               REJ-INF =           0.0000
                UZET =           0.0000                  UZET =           0.0000
             STORAGE =           0.0000               STORAGE =           0.0000

            TOTAL IN =      176000.0000              TOTAL IN =        8000.0000

          OUT:                                     OUT:
          ----                                     ----
                 GWF =           0.0000                   GWF =           0.0000
        INFILTRATION =           0.0000          INFILTRATION =           0.0000
             REJ-INF =           0.0000               REJ-INF =           0.0000
                UZET =           4.0027                  UZET =           0.4385
             STORAGE =      175995.9973               STORAGE =        7999.5615

           TOTAL OUT =      176000.0000             TOTAL OUT =        8000.0000

            IN - OUT =       1.7987E-06              IN - OUT =       1.6371E-11

 PERCENT DISCREPANCY =           0.00     PERCENT DISCREPANCY =           0.00



  VOLUME BUDGET FOR ENTIRE MODEL AT END OF TIME STEP    1, STRESS PERIOD   2
  ---------------------------------------------------------------------------------------------------

     CUMULATIVE VOLUME      L**3       RATES FOR THIS TIME STEP      L**3/T          PACKAGE NAME    
     ------------------                 ------------------------                     ----------------

           IN:                                      IN:
           ---                                      ---
              STO-SS =           0.0000                STO-SS =           0.0000     STORAGE         
              STO-SY =           0.0000                STO-SY =           0.0000     STORAGE         
                 CHD =           0.0000                   CHD =           0.0000     CHD-1           
           UZF-GWRCH =           0.0000             UZF-GWRCH =           0.0000     UZF-1           
             UZF-GWD =           0.0000               UZF-GWD =           0.0000     UZF-1           
            UZF-GWET =           0.0000              UZF-GWET =           0.0000     UZF-1           

            TOTAL IN =           0.0000              TOTAL IN =           0.0000

          OUT:                                     OUT:
          ----                                     ----
              STO-SS =           0.0000                STO-SS =           0.0000     STORAGE         
              STO-SY =           0.0000                STO-SY =           0.0000     STORAGE         
                 CHD =           0.0000                   CHD =           0.0000     CHD-1           
           UZF-GWRCH =           0.0000             UZF-GWRCH =           0.0000     UZF-1           
             UZF-GWD =           0.0000               UZF-GWD =           0.0000     UZF-1           
            UZF-GWET =           0.0000              UZF-GWET =           0.0000     UZF-1           

           TOTAL OUT =           0.0000             TOTAL OUT =           0.0000

            IN - OUT =           0.0000              IN - OUT =           0.0000

 PERCENT DISCREPANCY =           0.00     PERCENT DISCREPANCY =           0.00




         TIME SUMMARY AT END OF TIME STEP    1 IN STRESS PERIOD    2
                    SECONDS     MINUTES      HOURS       DAYS        YEARS
                    -----------------------------------------------------------
   TIME STEP LENGTH 1.72800E+05  2880.0      48.000      2.0000     5.47570E-03
 STRESS PERIOD TIME 1.72800E+05  2880.0      48.000      2.0000     5.47570E-03
         TOTAL TIME 1.90080E+06  31680.      528.00      22.000     6.02327E-02


end timestep


start timestep kper="2" kstp="2" mode="normal"

 UBDSV1 SAVING     FLOW-JA-FACE ON UNIT   1020 AT TIME STEP      2, STRESS PERIOD      2
 UBDSV06 SAVING     FLOW-JA-FACE IN MODEL GWF_1            PACKAGE UZF-1           CONNECTED TO MODEL GWF_1            PACKAGE UZF-1            ON UNIT   1014 AT TIME STEP      2, STRESS PERIOD      2
 UBDSV06 SAVING              GWF IN MODEL GWF_1            PACKAGE UZF-1           CONNECTED TO MODEL GWF_1            PACKAGE GWF_1            ON UNIT   1014 AT TIME STEP      2, STRESS PERIOD      2
 UBDSV06 SAVING     INFILTRATION IN MODEL GWF_1            PACKAGE UZF-1           CONNECTED TO MODEL GWF_1            PACKAGE UZF-1            ON UNIT   1014 AT TIME STEP      2, STRESS PERIOD      2
 UBDSV06 SAVING          REJ-INF IN MODEL GWF_1            PACKAGE UZF-1           CONNECTED TO MODEL GWF_1            PACKAGE UZF-1            ON UNIT   1014 AT TIME STEP      2, STRESS PERIOD      2
 UBDSV06 SAVING             UZET IN MODEL GWF_1            PACKAGE UZF-1           CONNECTED TO MODEL GWF_1            PACKAGE UZF-1            ON UNIT   1014 AT TIME STEP      2, STRESS PERIOD      2
 UBDSV06 SAVING          STORAGE IN MODEL GWF_1            PACKAGE UZF-1           CONNECTED TO MODEL GWF_1            PACKAGE UZF-1            ON UNIT   1014 AT TIME STEP      2, STRESS PERIOD      2

 CHD PACKAGE (CHD-1) FLOW RATES   PERIOD      2   STEP        2
 -----------------------------------------------
   NUMBER   CELLID                    RATE      
 -----------------------------------------------
     1      (3,1,1)               0.0000000     
     2      (3,1,10)              0.0000000     
 -----------------------------------------------




 UZF-GWRCH PACKAGE (UZF-1) FLOW RATES   PERIOD      2   STEP        2
 ----------------------------------------------------------------------------------------
   NUMBER   CELLID                    RATE       NAME                                    
 ----------------------------------------------------------------------------------------
     1      (1,1,2)               0.0000000      UZF01                                   
     2      (1,1,3)               0.0000000      UZF02                                   
     3      (1,1,4)               0.0000000      UZF03                                   
     4      (1,1,5)               0.0000000      UZF04                                   
     5      (1,1,6)               0.0000000      UZF05                                   
     6      (1,1,7)               0.0000000      UZF06                                   
     7      (1,1,8)               0.0000000      UZF07                                   
     8      (1,1,9)               0.0000000      UZF08                                   
     9      (2,1,2)               0.0000000      UZF08                                   
     10     (2,1,3)               0.0000000      UZF10                                   
     11     (2,1,4)               0.0000000      UZF11                                   
     12     (2,1,5)               0.0000000      UZF12                                   
     13     (2,1,6)               0.0000000      UZF13                                   
     14     (2,1,7)               0.0000000      UZF14                                   
     15     (2,1,8)               0.0000000      UZF15                                   
     16     (2,1,9)               0.0000000      UZF16                                   
     17     (3,1,2)               0.0000000      UZF17                                   
     18     (3,1,3)               0.0000000      UZF18                                   
     19     (3,1,4)               0.0000000      UZF19                                   
     20     (3,1,5)               0.0000000      UZF20                                   
     21     (3,1,6)               0.0000000      UZF21                                   
     22     (3,1,7)               0.0000000      UZF22                                   
     23     (3,1,8)               0.0000000      UZF23                                   
     24     (3,1,9)               0.0000000      UZF24                                   
 ----------------------------------------------------------------------------------------




 UZF-GWD PACKAGE (UZF-1) FLOW RATES   PERIOD      2   STEP        2
 ----------------------------------------------------------------------------------------
   NUMBER   CELLID                    RATE       NAME                                    
 ----------------------------------------------------------------------------------------
     1      (1,1,2)               0.0000000      UZF01                                   
     2      (1,1,3)               0.0000000      UZF02                                   
     3      (1,1,4)               0.0000000      UZF03                                   
     4      (1,1,5)               0.0000000      UZF04                                   
     5      (1,1,6)               0.0000000      UZF05                                   
     6      (1,1,7)               0.0000000      UZF06                                   
     7      (1,1,8)               0.0000000      UZF07                                   
     8      (1,1,9)               0.0000000      UZF08                                   
     9      (2,1,2)               0.0000000      UZF08                                   
     10     (2,1,3)               0.0000000      UZF10                                   
     11     (2,1,4)               0.0000000      UZF11                                   
     12     (2,1,5)               0.0000000      UZF12                                   
     13     (2,1,6)               0.0000000      UZF13                                   
     14     (2,1,7)               0.0000000      UZF14                                   
     15     (2,1,8)               0.0000000      UZF15                                   
     16     (2,1,9)               0.0000000      UZF16                                   
     17     (3,1,2)               0.0000000      UZF17                                   
     18     (3,1,3)               0.0000000      UZF18                                   
     19     (3,1,4)               0.0000000      UZF19                                   
     20     (3,1,5)               0.0000000      UZF20                                   
     21     (3,1,6)               0.0000000      UZF21                                   
     22     (3,1,7)               0.0000000      UZF22                                   
     23     (3,1,8)               0.0000000      UZF23                                   
     24     (3,1,9)               0.0000000      UZF24                                   
 ----------------------------------------------------------------------------------------




 UZF-GWET PACKAGE (UZF-1) FLOW RATES   PERIOD      2   STEP        2
 ----------------------------------------------------------------------------------------
   NUMBER   CELLID                    RATE       NAME                                    
 ----------------------------------------------------------------------------------------
     1      (1,1,2)               0.0000000      UZF01                                   
     2      (1,1,3)               0.0000000      UZF02                                   
     3      (1,1,4)               0.0000000      UZF03                                   
     4      (1,1,5)               0.0000000      UZF04                                   
     5      (1,1,6)               0.0000000      UZF05                                   
     6      (1,1,7)               0.0000000      UZF06                                   
     7      (1,1,8)               0.0000000      UZF07                                   
     8      (1,1,9)               0.0000000      UZF08                                   
     9      (2,1,2)               0.0000000      UZF08                                   
     10     (2,1,3)               0.0000000      UZF10                                   
     11     (2,1,4)               0.0000000      UZF11                                   
     12     (2,1,5)               0.0000000      UZF12                                   
     13     (2,1,6)               0.0000000      UZF13                                   
     14     (2,1,7)               0.0000000      UZF14                                   
     15     (2,1,8)               0.0000000      UZF15                                   
     16     (2,1,9)               0.0000000      UZF16                                   
     17     (3,1,2)               0.0000000      UZF17                                   
     18     (3,1,3)               0.0000000      UZF18                                   
     19     (3,1,4)               0.0000000      UZF19                                   
     20     (3,1,5)               0.0000000      UZF20                                   
     21     (3,1,6)               0.0000000      UZF21                                   
     22     (3,1,7)               0.0000000      UZF22                                   
     23     (3,1,8)               0.0000000      UZF23                                   
     24     (3,1,9)               0.0000000      UZF24                                   
 ----------------------------------------------------------------------------------------




 UZF-1 PACKAGE - SUMMARY OF FLOWS FOR EACH CONTROL VOLUME   PERIOD      2   STEP        2
 ----------------------------------------------------------------------------------------------------------------------------------------------------
                                                                                                                                           PERCENT   
   NUMBER   CELLID                  INFLOW      OUTFLOW        GWF      INFILTRATION   REJ INF        UZET       STORAGE      IN - OUT    DIFFERENCE 
 ----------------------------------------------------------------------------------------------------------------------------------------------------
     1      (1,1,2)               0.0000       0.0000       0.0000       1000.0       0.0000      -1.68653E-02 -999.98      -9.09495E-13 -9.09495E-14
     2      (1,1,3)               0.0000       0.0000       0.0000       1000.0       0.0000      -1.68653E-02 -999.98      -9.09495E-13 -9.09495E-14
     3      (1,1,4)               0.0000       0.0000       0.0000       1000.0       0.0000      -1.68653E-02 -999.98      -9.09495E-13 -9.09495E-14
     4      (1,1,5)               0.0000       0.0000       0.0000       1000.0       0.0000      -1.68653E-02 -999.98      -9.09495E-13 -9.09495E-14
     5      (1,1,6)               0.0000       0.0000       0.0000       1000.0       0.0000      -1.68653E-02 -999.98      -9.09495E-13 -9.09495E-14
     6      (1,1,7)               0.0000       0.0000       0.0000       1000.0       0.0000      -1.68653E-02 -999.98      -9.09495E-13 -9.09495E-14
     7      (1,1,8)               0.0000       0.0000       0.0000       1000.0       0.0000      -1.68653E-02 -999.98      -9.09495E-13 -9.09495E-14
     8      (1,1,9)               0.0000       0.0000       0.0000       1000.0       0.0000      -1.68653E-02 -999.98      -9.09495E-13 -9.09495E-14
     9      (2,1,2)               0.0000       0.0000       0.0000       0.0000       0.0000       0.0000       0.0000       0.0000       0.0000     
     10     (2,1,3)               0.0000       0.0000       0.0000       0.0000       0.0000       0.0000       0.0000       0.0000       0.0000     
     11     (2,1,4)               0.0000       0.0000       0.0000       0.0000       0.0000       0.0000       0.0000       0.0000       0.0000     
     12     (2,1,5)               0.0000       0.0000       0.0000       0.0000       0.0000       0.0000       0.0000       0.0000       0.0000     
     13     (2,1,6)               0.0000       0.0000       0.0000       0.0000       0.0000       0.0000       0.0000       0.0000       0.0000     
     14     (2,1,7)               0.0000       0.0000       0.0000       0.0000       0.0000       0.0000       0.0000       0.0000       0.0000     
     15     (2,1,8)               0.0000       0.0000       0.0000       0.0000       0.0000       0.0000       0.0000       0.0000       0.0000     
     16     (2,1,9)               0.0000       0.0000       0.0000       0.0000       0.0000       0.0000       0.0000       0.0000       0.0000     
     17     (3,1,2)               0.0000       0.0000       0.0000       0.0000       0.0000       0.0000       0.0000       0.0000       0.0000     
     18     (3,1,3)               0.0000       0.0000       0.0000       0.0000       0.0000       0.0000       0.0000       0.0000       0.0000     
     19     (3,1,4)               0.0000       0.0000       0.0000       0.0000       0.0000       0.0000       0.0000       0.0000       0.0000     
     20     (3,1,5)               0.0000       0.0000       0.0000       0.0000       0.0000       0.0000       0.0000       0.0000       0.0000     
     21     (3,1,6)               0.0000       0.0000       0.0000       0.0000       0.0000       0.0000       0.0000       0.0000       0.0000     
     22     (3,1,7)               0.0000       0.0000       0.0000       0.0000       0.0000       0.0000       0.0000       0.0000       0.0000     
     23     (3,1,8)               0.0000       0.0000       0.0000       0.0000       0.0000       0.0000       0.0000       0.0000       0.0000     
     24     (3,1,9)               0.0000       0.0000       0.0000       0.0000       0.0000       0.0000       0.0000       0.0000       0.0000     
 ----------------------------------------------------------------------------------------------------------------------------------------------------


1
  HEAD IN LAYER   1 AT END OF TIME STEP   2 IN STRESS PERIOD    2
  ---------------------------------------------------------------------------

            1           2           3           4           5           6           7           8           9          10
 ........................................................................................................................
   1   -25.00      -25.00      -25.00      -25.00      -25.00      -25.00      -25.00      -25.00      -25.00      -25.00    
1
  HEAD IN LAYER   2 AT END OF TIME STEP   2 IN STRESS PERIOD    2
  ---------------------------------------------------------------------------

            1           2           3           4           5           6           7           8           9          10
 ........................................................................................................................
   1   -25.00      -25.00      -25.00      -25.00      -25.00      -25.00      -25.00      -25.00      -25.00      -25.00    
1
  HEAD IN LAYER   3 AT END OF TIME STEP   2 IN STRESS PERIOD    2
  ---------------------------------------------------------------------------

            1           2           3           4           5           6           7           8           9          10
 ........................................................................................................................
   1   -25.00      -25.00      -25.00      -25.00      -25.00      -25.00      -25.00      -25.00      -25.00      -25.00    

 HEAD WILL BE SAVED ON UNIT 1022 AT END OF TIME STEP    2, STRESS PERIOD    2


  UZF-1 BUDGET FOR ENTIRE MODEL AT END OF TIME STEP    2, STRESS PERIOD   2
  ------------------------------------------------------------------------------

     CUMULATIVE UZF-1      L**3       RATES FOR THIS TIME STEP      L**3/T
     ------------------                 ------------------------

           IN:                                      IN:
           ---                                      ---
                 GWF =           0.0000                   GWF =           0.0000
        INFILTRATION =      192000.0000          INFILTRATION =        8000.0000
             REJ-INF =           0.0000               REJ-INF =           0.0000
                UZET =           0.0000                  UZET =           0.0000
             STORAGE =           0.0000               STORAGE =           0.0000

            TOTAL IN =      192000.0000              TOTAL IN =        8000.0000

          OUT:                                     OUT:
          ----                                     ----
                 GWF =           0.0000                   GWF =           0.0000
        INFILTRATION =           0.0000          INFILTRATION =           0.0000
             REJ-INF =           0.0000               REJ-INF =           0.0000
                UZET =           4.2725                  UZET =           0.1349
             STORAGE =      191995.7274               STORAGE =        7999.8651

           TOTAL OUT =      192000.0000             TOTAL OUT =        8000.0000

            IN - OUT =       1.7987E-06              IN - OUT =      -7.2760E-12

 PERCENT DISCREPANCY =           0.00     PERCENT DISCREPANCY =          -0.00



  VOLUME BUDGET FOR ENTIRE MODEL AT END OF TIME STEP    2, STRESS PERIOD   2
  ---------------------------------------------------------------------------------------------------

     CUMULATIVE VOLUME      L**3       RATES FOR THIS TIME STEP      L**3/T          PACKAGE NAME    
     ------------------                 ------------------------                     ----------------

           IN:                                      IN:
           ---                                      ---
              STO-SS =           0.0000                STO-SS =           0.0000     STORAGE         
              STO-SY =           0.0000                STO-SY =           0.0000     STORAGE         
                 CHD =           0.0000                   CHD =           0.0000     CHD-1           
           UZF-GWRCH =           0.0000             UZF-GWRCH =           0.0000     UZF-1           
             UZF-GWD =           0.0000               UZF-GWD =           0.0000     UZF-1           
            UZF-GWET =           0.0000              UZF-GWET =           0.0000     UZF-1           

            TOTAL IN =           0.0000              TOTAL IN =           0.0000

          OUT:                                     OUT:
          ----                                     ----
              STO-SS =           0.0000                STO-SS =           0.0000     STORAGE         
              STO-SY =           0.0000                STO-SY =           0.0000     STORAGE         
                 CHD =           0.0000                   CHD =           0.0000     CHD-1           
           UZF-GWRCH =           0.0000             UZF-GWRCH =           0.0000     UZF-1           
             UZF-GWD =           0.0000               UZF-GWD =           0.0000     UZF-1           
            UZF-GWET =           0.0000              UZF-GWET =           0.0000     UZF-1           

           TOTAL OUT =           0.0000             TOTAL OUT =           0.0000

            IN - OUT =           0.0000              IN - OUT =           0.0000

 PERCENT DISCREPANCY =           0.00     PERCENT DISCREPANCY =           0.00




         TIME SUMMARY AT END OF TIME STEP    2 IN STRESS PERIOD    2
                    SECONDS     MINUTES      HOURS       DAYS        YEARS
                    -----------------------------------------------------------
   TIME STEP LENGTH 1.72800E+05  2880.0      48.000      2.0000     5.47570E-03
 STRESS PERIOD TIME 3.45600E+05  5760.0      96.000      4.0000     1.09514E-02
         TOTAL TIME 2.07360E+06  34560.      576.00      24.000     6.57084E-02


end timestep


start timestep kper="2" kstp="3" mode="normal"

 UBDSV1 SAVING     FLOW-JA-FACE ON UNIT   1020 AT TIME STEP      3, STRESS PERIOD      2
 UBDSV06 SAVING     FLOW-JA-FACE IN MODEL GWF_1            PACKAGE UZF-1           CONNECTED TO MODEL GWF_1            PACKAGE UZF-1            ON UNIT   1014 AT TIME STEP      3, STRESS PERIOD      2
 UBDSV06 SAVING              GWF IN MODEL GWF_1            PACKAGE UZF-1           CONNECTED TO MODEL GWF_1            PACKAGE GWF_1            ON UNIT   1014 AT TIME STEP      3, STRESS PERIOD      2
 UBDSV06 SAVING     INFILTRATION IN MODEL GWF_1            PACKAGE UZF-1           CONNECTED TO MODEL GWF_1            PACKAGE UZF-1            ON UNIT   1014 AT TIME STEP      3, STRESS PERIOD      2
 UBDSV06 SAVING          REJ-INF IN MODEL GWF_1            PACKAGE UZF-1           CONNECTED TO MODEL GWF_1            PACKAGE UZF-1            ON UNIT   1014 AT TIME STEP      3, STRESS PERIOD      2
 UBDSV06 SAVING             UZET IN MODEL GWF_1            PACKAGE UZF-1           CONNECTED TO MODEL GWF_1            PACKAGE UZF-1            ON UNIT   1014 AT TIME STEP      3, STRESS PERIOD      2
 UBDSV06 SAVING          STORAGE IN MODEL GWF_1            PACKAGE UZF-1           CONNECTED TO MODEL GWF_1            PACKAGE UZF-1            ON UNIT   1014 AT TIME STEP      3, STRESS PERIOD      2

 CHD PACKAGE (CHD-1) FLOW RATES   PERIOD      2   STEP        3
 -----------------------------------------------
   NUMBER   CELLID                    RATE      
 -----------------------------------------------
     1      (3,1,1)               0.0000000     
     2      (3,1,10)              0.0000000     
 -----------------------------------------------




 UZF-GWRCH PACKAGE (UZF-1) FLOW RATES   PERIOD      2   STEP        3
 ----------------------------------------------------------------------------------------
   NUMBER   CELLID                    RATE       NAME                                    
 ----------------------------------------------------------------------------------------
     1      (1,1,2)               0.0000000      UZF01                                   
     2      (1,1,3)               0.0000000      UZF02                                   
     3      (1,1,4)               0.0000000      UZF03                                   
     4      (1,1,5)               0.0000000      UZF04                                   
     5      (1,1,6)               0.0000000      UZF05                                   
     6      (1,1,7)               0.0000000      UZF06                                   
     7      (1,1,8)               0.0000000      UZF07                                   
     8      (1,1,9)               0.0000000      UZF08                                   
     9      (2,1,2)               0.0000000      UZF08                                   
     10     (2,1,3)               0.0000000      UZF10                                   
     11     (2,1,4)               0.0000000      UZF11                                   
     12     (2,1,5)               0.0000000      UZF12                                   
     13     (2,1,6)               0.0000000      UZF13                                   
     14     (2,1,7)               0.0000000      UZF14                                   
     15     (2,1,8)               0.0000000      UZF15                                   
     16     (2,1,9)               0.0000000      UZF16                                   
     17     (3,1,2)               0.0000000      UZF17                                   
     18     (3,1,3)               0.0000000      UZF18                                   
     19     (3,1,4)               0.0000000      UZF19                                   
     20     (3,1,5)               0.0000000      UZF20                                   
     21     (3,1,6)               0.0000000      UZF21                                   
     22     (3,1,7)               0.0000000      UZF22                                   
     23     (3,1,8)               0.0000000      UZF23                                   
     24     (3,1,9)               0.0000000      UZF24                                   
 ----------------------------------------------------------------------------------------




 UZF-GWD PACKAGE (UZF-1) FLOW RATES   PERIOD      2   STEP        3
 ----------------------------------------------------------------------------------------
   NUMBER   CELLID                    RATE       NAME                                    
 ----------------------------------------------------------------------------------------
     1      (1,1,2)               0.0000000      UZF01                                   
     2      (1,1,3)               0.0000000      UZF02                                   
     3      (1,1,4)               0.0000000      UZF03                                   
     4      (1,1,5)               0.0000000      UZF04                                   
     5      (1,1,6)               0.0000000      UZF05                                   
     6      (1,1,7)               0.0000000      UZF06                                   
     7      (1,1,8)               0.0000000      UZF07                                   
     8      (1,1,9)               0.0000000      UZF08                                   
     9      (2,1,2)               0.0000000      UZF08                                   
     10     (2,1,3)               0.0000000      UZF10                                   
     11     (2,1,4)               0.0000000      UZF11                                   
     12     (2,1,5)               0.0000000      UZF12                                   
     13     (2,1,6)               0.0000000      UZF13                                   
     14     (2,1,7)               0.0000000      UZF14                                   
     15     (2,1,8)               0.0000000      UZF15                                   
     16     (2,1,9)               0.0000000      UZF16                                   
     17     (3,1,2)               0.0000000      UZF17                                   
     18     (3,1,3)               0.0000000      UZF18                                   
     19     (3,1,4)               0.0000000      UZF19                                   
     20     (3,1,5)               0.0000000      UZF20                                   
     21     (3,1,6)               0.0000000      UZF21                                   
     22     (3,1,7)               0.0000000      UZF22                                   
     23     (3,1,8)               0.0000000      UZF23                                   
     24     (3,1,9)               0.0000000      UZF24                                   
 ----------------------------------------------------------------------------------------




 UZF-GWET PACKAGE (UZF-1) FLOW RATES   PERIOD      2   STEP        3
 ----------------------------------------------------------------------------------------
   NUMBER   CELLID                    RATE       NAME                                    
 ----------------------------------------------------------------------------------------
     1      (1,1,2)               0.0000000      UZF01                                   
     2      (1,1,3)               0.0000000      UZF02                                   
     3      (1,1,4)               0.0000000      UZF03                                   
     4      (1,1,5)               0.0000000      UZF04                                   
     5      (1,1,6)               0.0000000      UZF05                                   
     6      (1,1,7)               0.0000000      UZF06                                   
     7      (1,1,8)               0.0000000      UZF07                                   
     8      (1,1,9)               0.0000000      UZF08                                   
     9      (2,1,2)               0.0000000      UZF08                                   
     10     (2,1,3)               0.0000000      UZF10                                   
     11     (2,1,4)               0.0000000      UZF11                                   
     12     (2,1,5)               0.0000000      UZF12                                   
     13     (2,1,6)               0.0000000      UZF13                                   
     14     (2,1,7)               0.0000000      UZF14                                   
     15     (2,1,8)               0.0000000      UZF15                                   
     16     (2,1,9)               0.0000000      UZF16                                   
     17     (3,1,2)               0.0000000      UZF17                                   
     18     (3,1,3)               0.0000000      UZF18                                   
     19     (3,1,4)               0.0000000      UZF19                                   
     20     (3,1,5)               0.0000000      UZF20                                   
     21     (3,1,6)               0.0000000      UZF21                                   
     22     (3,1,7)               0.0000000      UZF22                                   
     23     (3,1,8)               0.0000000      UZF23                                   
     24     (3,1,9)               0.0000000      UZF24                                   
 ----------------------------------------------------------------------------------------




 UZF-1 PACKAGE - SUMMARY OF FLOWS FOR EACH CONTROL VOLUME   PERIOD      2   STEP        3
 ----------------------------------------------------------------------------------------------------------------------------------------------------
                                                                                                                                           PERCENT   
   NUMBER   CELLID                  INFLOW      OUTFLOW        GWF      INFILTRATION   REJ INF        UZET       STORAGE      IN - OUT    DIFFERENCE 
 ----------------------------------------------------------------------------------------------------------------------------------------------------
     1      (1,1,2)               0.0000       0.0000       0.0000       1000.0       0.0000      -2.38925E-02 -999.98      -3.63798E-12 -3.63798E-13
     2      (1,1,3)               0.0000       0.0000       0.0000       1000.0       0.0000      -2.38925E-02 -999.98      -3.63798E-12 -3.63798E-13
     3      (1,1,4)               0.0000       0.0000       0.0000       1000.0       0.0000      -2.38925E-02 -999.98      -3.63798E-12 -3.63798E-13
     4      (1,1,5)               0.0000       0.0000       0.0000       1000.0       0.0000      -2.38925E-02 -999.98      -3.63798E-12 -3.63798E-13
     5      (1,1,6)               0.0000       0.0000       0.0000       1000.0       0.0000      -2.38925E-02 -999.98      -3.63798E-12 -3.63798E-13
     6      (1,1,7)               0.0000       0.0000       0.0000       1000.0       0.0000      -2.38925E-02 -999.98      -3.63798E-12 -3.63798E-13
     7      (1,1,8)               0.0000       0.0000       0.0000       1000.0       0.0000      -2.38925E-02 -999.98      -3.63798E-12 -3.63798E-13
     8      (1,1,9)               0.0000       0.0000       0.0000       1000.0       0.0000      -2.38925E-02 -999.98      -3.63798E-12 -3.63798E-13
     9      (2,1,2)               0.0000       0.0000       0.0000       0.0000       0.0000       0.0000       0.0000       0.0000       0.0000     
     10     (2,1,3)               0.0000       0.0000       0.0000       0.0000       0.0000       0.0000       0.0000       0.0000       0.0000     
     11     (2,1,4)               0.0000       0.0000       0.0000       0.0000       0.0000       0.0000       0.0000       0.0000       0.0000     
     12     (2,1,5)               0.0000       0.0000       0.0000       0.0000       0.0000       0.0000       0.0000       0.0000       0.0000     
     13     (2,1,6)               0.0000       0.0000       0.0000       0.0000       0.0000       0.0000       0.0000       0.0000       0.0000     
     14     (2,1,7)               0.0000       0.0000       0.0000       0.0000       0.0000       0.0000       0.0000       0.0000       0.0000     
     15     (2,1,8)               0.0000       0.0000       0.0000       0.0000       0.0000       0.0000       0.0000       0.0000       0.0000     
     16     (2,1,9)               0.0000       0.0000       0.0000       0.0000       0.0000       0.0000       0.0000       0.0000       0.0000     
     17     (3,1,2)               0.0000       0.0000       0.0000       0.0000       0.0000       0.0000       0.0000       0.0000       0.0000     
     18     (3,1,3)               0.0000       0.0000       0.0000       0.0000       0.0000       0.0000       0.0000       0.0000       0.0000     
     19     (3,1,4)               0.0000       0.0000       0.0000       0.0000       0.0000       0.0000       0.0000       0.0000       0.0000     
     20     (3,1,5)               0.0000       0.0000       0.0000       0.0000       0.0000       0.0000       0.0000       0.0000       0.0000     
     21     (3,1,6)               0.0000       0.0000       0.0000       0.0000       0.0000       0.0000       0.0000       0.0000       0.0000     
     22     (3,1,7)               0.0000       0.0000       0.0000       0.0000       0.0000       0.0000       0.0000       0.0000       0.0000     
     23     (3,1,8)               0.0000       0.0000       0.0000       0.0000       0.0000       0.0000       0.0000       0.0000       0.0000     
     24     (3,1,9)               0.0000       0.0000       0.0000       0.0000       0.0000       0.0000       0.0000       0.0000       0.0000     
 ----------------------------------------------------------------------------------------------------------------------------------------------------


1
  HEAD IN LAYER   1 AT END OF TIME STEP   3 IN STRESS PERIOD    2
  ---------------------------------------------------------------------------

            1           2           3           4           5           6           7           8           9          10
 ........................................................................................................................
   1   -25.00      -25.00      -25.00      -25.00      -25.00      -25.00      -25.00      -25.00      -25.00      -25.00    
1
  HEAD IN LAYER   2 AT END OF TIME STEP   3 IN STRESS PERIOD    2
  ---------------------------------------------------------------------------

            1           2           3           4           5           6           7           8           9          10
 ........................................................................................................................
   1   -25.00      -25.00      -25.00      -25.00      -25.00      -25.00      -25.00      -25.00      -25.00      -25.00    
1
  HEAD IN LAYER   3 AT END OF TIME STEP   3 IN STRESS PERIOD    2
  ---------------------------------------------------------------------------

            1           2           3           4           5           6           7           8           9          10
 ........................................................................................................................
   1   -25.00      -25.00      -25.00      -25.00      -25.00      -25.00      -25.00      -25.00      -25.00      -25.00    

 HEAD WILL BE SAVED ON UNIT 1022 AT END OF TIME STEP    3, STRESS PERIOD    2


  UZF-1 BUDGET FOR ENTIRE MODEL AT END OF TIME STEP    3, STRESS PERIOD   2
  ------------------------------------------------------------------------------

     CUMULATIVE UZF-1      L**3       RATES FOR THIS TIME STEP      L**3/T
     ------------------                 ------------------------

           IN:                                      IN:
           ---                                      ---
                 GWF =           0.0000                   GWF =           0.0000
        INFILTRATION =      208000.0000          INFILTRATION =        8000.0000
             REJ-INF =           0.0000               REJ-INF =           0.0000
                UZET =           0.0000                  UZET =           0.0000
             STORAGE =           0.0000               STORAGE =           0.0000

            TOTAL IN =      208000.0000              TOTAL IN =        8000.0000

          OUT:                                     OUT:
          ----                                     ----
                 GWF =           0.0000                   GWF =           0.0000
        INFILTRATION =           0.0000          INFILTRATION =           0.0000
             REJ-INF =           0.0000               REJ-INF =           0.0000
                UZET =           4.6548                  UZET =           0.1911
             STORAGE =      207995.3452               STORAGE =        7999.8089

           TOTAL OUT =      208000.0000             TOTAL OUT =        8000.0000

            IN - OUT =       1.7986E-06              IN - OUT =      -2.9104E-11

 PERCENT DISCREPANCY =           0.00     PERCENT DISCREPANCY =          -0.00



  VOLUME BUDGET FOR ENTIRE MODEL AT END OF TIME STEP    3, STRESS PERIOD   2
  ---------------------------------------------------------------------------------------------------

     CUMULATIVE VOLUME      L**3       RATES FOR THIS TIME STEP      L**3/T          PACKAGE NAME    
     ------------------                 ------------------------                     ----------------

           IN:                                      IN:
           ---                                      ---
              STO-SS =           0.0000                STO-SS =           0.0000     STORAGE         
              STO-SY =           0.0000                STO-SY =           0.0000     STORAGE         
                 CHD =           0.0000                   CHD =           0.0000     CHD-1           
           UZF-GWRCH =           0.0000             UZF-GWRCH =           0.0000     UZF-1           
             UZF-GWD =           0.0000               UZF-GWD =           0.0000     UZF-1           
            UZF-GWET =           0.0000              UZF-GWET =           0.0000     UZF-1           

            TOTAL IN =           0.0000              TOTAL IN =           0.0000

          OUT:                                     OUT:
          ----                                     ----
              STO-SS =           0.0000                STO-SS =           0.0000     STORAGE         
              STO-SY =           0.0000                STO-SY =           0.0000     STORAGE         
                 CHD =           0.0000                   CHD =           0.0000     CHD-1           
           UZF-GWRCH =           0.0000             UZF-GWRCH =           0.0000     UZF-1           
             UZF-GWD =           0.0000               UZF-GWD =           0.0000     UZF-1           
            UZF-GWET =           0.0000              UZF-GWET =           0.0000     UZF-1           

           TOTAL OUT =           0.0000             TOTAL OUT =           0.0000

            IN - OUT =           0.0000              IN - OUT =           0.0000

 PERCENT DISCREPANCY =           0.00     PERCENT DISCREPANCY =           0.00




         TIME SUMMARY AT END OF TIME STEP    3 IN STRESS PERIOD    2
                    SECONDS     MINUTES      HOURS       DAYS        YEARS
                    -----------------------------------------------------------
   TIME STEP LENGTH 1.72800E+05  2880.0      48.000      2.0000     5.47570E-03
 STRESS PERIOD TIME 5.18400E+05  8640.0      144.00      6.0000     1.64271E-02
         TOTAL TIME 2.24640E+06  37440.      624.00      26.000     7.11841E-02


end timestep


start timestep kper="2" kstp="4" mode="normal"

 UBDSV1 SAVING     FLOW-JA-FACE ON UNIT   1020 AT TIME STEP      4, STRESS PERIOD      2
 UBDSV06 SAVING     FLOW-JA-FACE IN MODEL GWF_1            PACKAGE UZF-1           CONNECTED TO MODEL GWF_1            PACKAGE UZF-1            ON UNIT   1014 AT TIME STEP      4, STRESS PERIOD      2
 UBDSV06 SAVING              GWF IN MODEL GWF_1            PACKAGE UZF-1           CONNECTED TO MODEL GWF_1            PACKAGE GWF_1            ON UNIT   1014 AT TIME STEP      4, STRESS PERIOD      2
 UBDSV06 SAVING     INFILTRATION IN MODEL GWF_1            PACKAGE UZF-1           CONNECTED TO MODEL GWF_1            PACKAGE UZF-1            ON UNIT   1014 AT TIME STEP      4, STRESS PERIOD      2
 UBDSV06 SAVING          REJ-INF IN MODEL GWF_1            PACKAGE UZF-1           CONNECTED TO MODEL GWF_1            PACKAGE UZF-1            ON UNIT   1014 AT TIME STEP      4, STRESS PERIOD      2
 UBDSV06 SAVING             UZET IN MODEL GWF_1            PACKAGE UZF-1           CONNECTED TO MODEL GWF_1            PACKAGE UZF-1            ON UNIT   1014 AT TIME STEP      4, STRESS PERIOD      2
 UBDSV06 SAVING          STORAGE IN MODEL GWF_1            PACKAGE UZF-1           CONNECTED TO MODEL GWF_1            PACKAGE UZF-1            ON UNIT   1014 AT TIME STEP      4, STRESS PERIOD      2

 CHD PACKAGE (CHD-1) FLOW RATES   PERIOD      2   STEP        4
 -----------------------------------------------
   NUMBER   CELLID                    RATE      
 -----------------------------------------------
     1      (3,1,1)               0.0000000     
     2      (3,1,10)              0.0000000     
 -----------------------------------------------




 UZF-GWRCH PACKAGE (UZF-1) FLOW RATES   PERIOD      2   STEP        4
 ----------------------------------------------------------------------------------------
   NUMBER   CELLID                    RATE       NAME                                    
 ----------------------------------------------------------------------------------------
     1      (1,1,2)               0.0000000      UZF01                                   
     2      (1,1,3)               0.0000000      UZF02                                   
     3      (1,1,4)               0.0000000      UZF03                                   
     4      (1,1,5)               0.0000000      UZF04                                   
     5      (1,1,6)               0.0000000      UZF05                                   
     6      (1,1,7)               0.0000000      UZF06                                   
     7      (1,1,8)               0.0000000      UZF07                                   
     8      (1,1,9)               0.0000000      UZF08                                   
     9      (2,1,2)               0.0000000      UZF08                                   
     10     (2,1,3)               0.0000000      UZF10                                   
     11     (2,1,4)               0.0000000      UZF11                                   
     12     (2,1,5)               0.0000000      UZF12                                   
     13     (2,1,6)               0.0000000      UZF13                                   
     14     (2,1,7)               0.0000000      UZF14                                   
     15     (2,1,8)               0.0000000      UZF15                                   
     16     (2,1,9)               0.0000000      UZF16                                   
     17     (3,1,2)               0.0000000      UZF17                                   
     18     (3,1,3)               0.0000000      UZF18                                   
     19     (3,1,4)               0.0000000      UZF19                                   
     20     (3,1,5)               0.0000000      UZF20                                   
     21     (3,1,6)               0.0000000      UZF21                                   
     22     (3,1,7)               0.0000000      UZF22                                   
     23     (3,1,8)               0.0000000      UZF23                                   
     24     (3,1,9)               0.0000000      UZF24                                   
 ----------------------------------------------------------------------------------------




 UZF-GWD PACKAGE (UZF-1) FLOW RATES   PERIOD      2   STEP        4
 ----------------------------------------------------------------------------------------
   NUMBER   CELLID                    RATE       NAME                                    
 ----------------------------------------------------------------------------------------
     1      (1,1,2)               0.0000000      UZF01                                   
     2      (1,1,3)               0.0000000      UZF02                                   
     3      (1,1,4)               0.0000000      UZF03                                   
     4      (1,1,5)               0.0000000      UZF04                                   
     5      (1,1,6)               0.0000000      UZF05                                   
     6      (1,1,7)               0.0000000      UZF06                                   
     7      (1,1,8)               0.0000000      UZF07                                   
     8      (1,1,9)               0.0000000      UZF08                                   
     9      (2,1,2)               0.0000000      UZF08                                   
     10     (2,1,3)               0.0000000      UZF10                                   
     11     (2,1,4)               0.0000000      UZF11                                   
     12     (2,1,5)               0.0000000      UZF12                                   
     13     (2,1,6)               0.0000000      UZF13                                   
     14     (2,1,7)               0.0000000      UZF14                                   
     15     (2,1,8)               0.0000000      UZF15                                   
     16     (2,1,9)               0.0000000      UZF16                                   
     17     (3,1,2)               0.0000000      UZF17                                   
     18     (3,1,3)               0.0000000      UZF18                                   
     19     (3,1,4)               0.0000000      UZF19                                   
     20     (3,1,5)               0.0000000      UZF20                                   
     21     (3,1,6)               0.0000000      UZF21                                   
     22     (3,1,7)               0.0000000      UZF22                                   
     23     (3,1,8)               0.0000000      UZF23                                   
     24     (3,1,9)               0.0000000      UZF24                                   
 ----------------------------------------------------------------------------------------




 UZF-GWET PACKAGE (UZF-1) FLOW RATES   PERIOD      2   STEP        4
 ----------------------------------------------------------------------------------------
   NUMBER   CELLID                    RATE       NAME                                    
 ----------------------------------------------------------------------------------------
     1      (1,1,2)               0.0000000      UZF01                                   
     2      (1,1,3)               0.0000000      UZF02                                   
     3      (1,1,4)               0.0000000      UZF03                                   
     4      (1,1,5)               0.0000000      UZF04                                   
     5      (1,1,6)               0.0000000      UZF05                                   
     6      (1,1,7)               0.0000000      UZF06                                   
     7      (1,1,8)               0.0000000      UZF07                                   
     8      (1,1,9)               0.0000000      UZF08                                   
     9      (2,1,2)               0.0000000      UZF08                                   
     10     (2,1,3)               0.0000000      UZF10                                   
     11     (2,1,4)               0.0000000      UZF11                                   
     12     (2,1,5)               0.0000000      UZF12                                   
     13     (2,1,6)               0.0000000      UZF13                                   
     14     (2,1,7)               0.0000000      UZF14                                   
     15     (2,1,8)               0.0000000      UZF15                                   
     16     (2,1,9)               0.0000000      UZF16                                   
     17     (3,1,2)               0.0000000      UZF17                                   
     18     (3,1,3)               0.0000000      UZF18                                   
     19     (3,1,4)               0.0000000      UZF19                                   
     20     (3,1,5)               0.0000000      UZF20                                   
     21     (3,1,6)               0.0000000      UZF21                                   
     22     (3,1,7)               0.0000000      UZF22                                   
     23     (3,1,8)               0.0000000      UZF23                                   
     24     (3,1,9)               0.0000000      UZF24                                   
 ----------------------------------------------------------------------------------------




 UZF-1 PACKAGE - SUMMARY OF FLOWS FOR EACH CONTROL VOLUME   PERIOD      2   STEP        4
 ----------------------------------------------------------------------------------------------------------------------------------------------------
                                                                                                                                           PERCENT   
   NUMBER   CELLID                  INFLOW      OUTFLOW        GWF      INFILTRATION   REJ INF        UZET       STORAGE      IN - OUT    DIFFERENCE 
 ----------------------------------------------------------------------------------------------------------------------------------------------------
     1      (1,1,2)               0.0000       0.0000       0.0000       1000.0       0.0000      -3.09197E-02 -999.97       4.66116E-12  4.66116E-13
     2      (1,1,3)               0.0000       0.0000       0.0000       1000.0       0.0000      -3.09197E-02 -999.97       4.66116E-12  4.66116E-13
     3      (1,1,4)               0.0000       0.0000       0.0000       1000.0       0.0000      -3.09197E-02 -999.97       4.66116E-12  4.66116E-13
     4      (1,1,5)               0.0000       0.0000       0.0000       1000.0       0.0000      -3.09197E-02 -999.97       4.66116E-12  4.66116E-13
     5      (1,1,6)               0.0000       0.0000       0.0000       1000.0       0.0000      -3.09197E-02 -999.97       4.66116E-12  4.66116E-13
     6      (1,1,7)               0.0000       0.0000       0.0000       1000.0       0.0000      -3.09197E-02 -999.97       4.66116E-12  4.66116E-13
     7      (1,1,8)               0.0000       0.0000       0.0000       1000.0       0.0000      -3.09197E-02 -999.97       4.66116E-12  4.66116E-13
     8      (1,1,9)               0.0000       0.0000       0.0000       1000.0       0.0000      -3.09197E-02 -999.97       4.66116E-12  4.66116E-13
     9      (2,1,2)               0.0000       0.0000       0.0000       0.0000       0.0000       0.0000       0.0000       0.0000       0.0000     
     10     (2,1,3)               0.0000       0.0000       0.0000       0.0000       0.0000       0.0000       0.0000       0.0000       0.0000     
     11     (2,1,4)               0.0000       0.0000       0.0000       0.0000       0.0000       0.0000       0.0000       0.0000       0.0000     
     12     (2,1,5)               0.0000       0.0000       0.0000       0.0000       0.0000       0.0000       0.0000       0.0000       0.0000     
     13     (2,1,6)               0.0000       0.0000       0.0000       0.0000       0.0000       0.0000       0.0000       0.0000       0.0000     
     14     (2,1,7)               0.0000       0.0000       0.0000       0.0000       0.0000       0.0000       0.0000       0.0000       0.0000     
     15     (2,1,8)               0.0000       0.0000       0.0000       0.0000       0.0000       0.0000       0.0000       0.0000       0.0000     
     16     (2,1,9)               0.0000       0.0000       0.0000       0.0000       0.0000       0.0000       0.0000       0.0000       0.0000     
     17     (3,1,2)               0.0000       0.0000       0.0000       0.0000       0.0000       0.0000       0.0000       0.0000       0.0000     
     18     (3,1,3)               0.0000       0.0000       0.0000       0.0000       0.0000       0.0000       0.0000       0.0000       0.0000     
     19     (3,1,4)               0.0000       0.0000       0.0000       0.0000       0.0000       0.0000       0.0000       0.0000       0.0000     
     20     (3,1,5)               0.0000       0.0000       0.0000       0.0000       0.0000       0.0000       0.0000       0.0000       0.0000     
     21     (3,1,6)               0.0000       0.0000       0.0000       0.0000       0.0000       0.0000       0.0000       0.0000       0.0000     
     22     (3,1,7)               0.0000       0.0000       0.0000       0.0000       0.0000       0.0000       0.0000       0.0000       0.0000     
     23     (3,1,8)               0.0000       0.0000       0.0000       0.0000       0.0000       0.0000       0.0000       0.0000       0.0000     
     24     (3,1,9)               0.0000       0.0000       0.0000       0.0000       0.0000       0.0000       0.0000       0.0000       0.0000     
 ----------------------------------------------------------------------------------------------------------------------------------------------------


1
  HEAD IN LAYER   1 AT END OF TIME STEP   4 IN STRESS PERIOD    2
  ---------------------------------------------------------------------------

            1           2           3           4           5           6           7           8           9          10
 ........................................................................................................................
   1   -25.00      -25.00      -25.00      -25.00      -25.00      -25.00      -25.00      -25.00      -25.00      -25.00    
1
  HEAD IN LAYER   2 AT END OF TIME STEP   4 IN STRESS PERIOD    2
  ---------------------------------------------------------------------------

            1           2           3           4           5           6           7           8           9          10
 ........................................................................................................................
   1   -25.00      -25.00      -25.00      -25.00      -25.00      -25.00      -25.00      -25.00      -25.00      -25.00    
1
  HEAD IN LAYER   3 AT END OF TIME STEP   4 IN STRESS PERIOD    2
  ---------------------------------------------------------------------------

            1           2           3           4           5           6           7           8           9          10
 ........................................................................................................................
   1   -25.00      -25.00      -25.00      -25.00      -25.00      -25.00      -25.00      -25.00      -25.00      -25.00    

 HEAD WILL BE SAVED ON UNIT 1022 AT END OF TIME STEP    4, STRESS PERIOD    2


  UZF-1 BUDGET FOR ENTIRE MODEL AT END OF TIME STEP    4, STRESS PERIOD   2
  ------------------------------------------------------------------------------

     CUMULATIVE UZF-1      L**3       RATES FOR THIS TIME STEP      L**3/T
     ------------------                 ------------------------

           IN:                                      IN:
           ---                                      ---
                 GWF =           0.0000                   GWF =           0.0000
        INFILTRATION =      224000.0000          INFILTRATION =        8000.0000
             REJ-INF =           0.0000               REJ-INF =           0.0000
                UZET =           0.0000                  UZET =           0.0000
             STORAGE =           0.0000               STORAGE =           0.0000

            TOTAL IN =      224000.0000              TOTAL IN =        8000.0000

          OUT:                                     OUT:
          ----                                     ----
                 GWF =           0.0000                   GWF =           0.0000
        INFILTRATION =           0.0000          INFILTRATION =           0.0000
             REJ-INF =           0.0000               REJ-INF =           0.0000
                UZET =           5.1495                  UZET =           0.2474
             STORAGE =      223994.8505               STORAGE =        7999.7526

           TOTAL OUT =      224000.0000             TOTAL OUT =        8000.0000

            IN - OUT =       1.7987E-06              IN - OUT =       3.7289E-11

 PERCENT DISCREPANCY =           0.00     PERCENT DISCREPANCY =           0.00



  VOLUME BUDGET FOR ENTIRE MODEL AT END OF TIME STEP    4, STRESS PERIOD   2
  ---------------------------------------------------------------------------------------------------

     CUMULATIVE VOLUME      L**3       RATES FOR THIS TIME STEP      L**3/T          PACKAGE NAME    
     ------------------                 ------------------------                     ----------------

           IN:                                      IN:
           ---                                      ---
              STO-SS =           0.0000                STO-SS =           0.0000     STORAGE         
              STO-SY =           0.0000                STO-SY =           0.0000     STORAGE         
                 CHD =           0.0000                   CHD =           0.0000     CHD-1           
           UZF-GWRCH =           0.0000             UZF-GWRCH =           0.0000     UZF-1           
             UZF-GWD =           0.0000               UZF-GWD =           0.0000     UZF-1           
            UZF-GWET =           0.0000              UZF-GWET =           0.0000     UZF-1           

            TOTAL IN =           0.0000              TOTAL IN =           0.0000

          OUT:                                     OUT:
          ----                                     ----
              STO-SS =           0.0000                STO-SS =           0.0000     STORAGE         
              STO-SY =           0.0000                STO-SY =           0.0000     STORAGE         
                 CHD =           0.0000                   CHD =           0.0000     CHD-1           
           UZF-GWRCH =           0.0000             UZF-GWRCH =           0.0000     UZF-1           
             UZF-GWD =           0.0000               UZF-GWD =           0.0000     UZF-1           
            UZF-GWET =           0.0000              UZF-GWET =           0.0000     UZF-1           

           TOTAL OUT =           0.0000             TOTAL OUT =           0.0000

            IN - OUT =           0.0000              IN - OUT =           0.0000

 PERCENT DISCREPANCY =           0.00     PERCENT DISCREPANCY =           0.00




         TIME SUMMARY AT END OF TIME STEP    4 IN STRESS PERIOD    2
                    SECONDS     MINUTES      HOURS       DAYS        YEARS
                    -----------------------------------------------------------
   TIME STEP LENGTH 1.72800E+05  2880.0      48.000      2.0000     5.47570E-03
 STRESS PERIOD TIME 6.91200E+05  11520.      192.00      8.0000     2.19028E-02
         TOTAL TIME 2.41920E+06  40320.      672.00      28.000     7.66598E-02


end timestep


start timestep kper="2" kstp="5" mode="normal"

 UBDSV1 SAVING     FLOW-JA-FACE ON UNIT   1020 AT TIME STEP      5, STRESS PERIOD      2
 UBDSV06 SAVING     FLOW-JA-FACE IN MODEL GWF_1            PACKAGE UZF-1           CONNECTED TO MODEL GWF_1            PACKAGE UZF-1            ON UNIT   1014 AT TIME STEP      5, STRESS PERIOD      2
 UBDSV06 SAVING              GWF IN MODEL GWF_1            PACKAGE UZF-1           CONNECTED TO MODEL GWF_1            PACKAGE GWF_1            ON UNIT   1014 AT TIME STEP      5, STRESS PERIOD      2
 UBDSV06 SAVING     INFILTRATION IN MODEL GWF_1            PACKAGE UZF-1           CONNECTED TO MODEL GWF_1            PACKAGE UZF-1            ON UNIT   1014 AT TIME STEP      5, STRESS PERIOD      2
 UBDSV06 SAVING          REJ-INF IN MODEL GWF_1            PACKAGE UZF-1           CONNECTED TO MODEL GWF_1            PACKAGE UZF-1            ON UNIT   1014 AT TIME STEP      5, STRESS PERIOD      2
 UBDSV06 SAVING             UZET IN MODEL GWF_1            PACKAGE UZF-1           CONNECTED TO MODEL GWF_1            PACKAGE UZF-1            ON UNIT   1014 AT TIME STEP      5, STRESS PERIOD      2
 UBDSV06 SAVING          STORAGE IN MODEL GWF_1            PACKAGE UZF-1           CONNECTED TO MODEL GWF_1            PACKAGE UZF-1            ON UNIT   1014 AT TIME STEP      5, STRESS PERIOD      2

 CHD PACKAGE (CHD-1) FLOW RATES   PERIOD      2   STEP        5
 -----------------------------------------------
   NUMBER   CELLID                    RATE      
 -----------------------------------------------
     1      (3,1,1)               0.0000000     
     2      (3,1,10)              0.0000000     
 -----------------------------------------------




 UZF-GWRCH PACKAGE (UZF-1) FLOW RATES   PERIOD      2   STEP        5
 ----------------------------------------------------------------------------------------
   NUMBER   CELLID                    RATE       NAME                                    
 ----------------------------------------------------------------------------------------
     1      (1,1,2)               0.0000000      UZF01                                   
     2      (1,1,3)               0.0000000      UZF02                                   
     3      (1,1,4)               0.0000000      UZF03                                   
     4      (1,1,5)               0.0000000      UZF04                                   
     5      (1,1,6)               0.0000000      UZF05                                   
     6      (1,1,7)               0.0000000      UZF06                                   
     7      (1,1,8)               0.0000000      UZF07                                   
     8      (1,1,9)               0.0000000      UZF08                                   
     9      (2,1,2)               0.0000000      UZF08                                   
     10     (2,1,3)               0.0000000      UZF10                                   
     11     (2,1,4)               0.0000000      UZF11                                   
     12     (2,1,5)               0.0000000      UZF12                                   
     13     (2,1,6)               0.0000000      UZF13                                   
     14     (2,1,7)               0.0000000      UZF14                                   
     15     (2,1,8)               0.0000000      UZF15                                   
     16     (2,1,9)               0.0000000      UZF16                                   
     17     (3,1,2)               0.0000000      UZF17                                   
     18     (3,1,3)               0.0000000      UZF18                                   
     19     (3,1,4)               0.0000000      UZF19                                   
     20     (3,1,5)               0.0000000      UZF20                                   
     21     (3,1,6)               0.0000000      UZF21                                   
     22     (3,1,7)               0.0000000      UZF22                                   
     23     (3,1,8)               0.0000000      UZF23                                   
     24     (3,1,9)               0.0000000      UZF24                                   
 ----------------------------------------------------------------------------------------




 UZF-GWD PACKAGE (UZF-1) FLOW RATES   PERIOD      2   STEP        5
 ----------------------------------------------------------------------------------------
   NUMBER   CELLID                    RATE       NAME                                    
 ----------------------------------------------------------------------------------------
     1      (1,1,2)               0.0000000      UZF01                                   
     2      (1,1,3)               0.0000000      UZF02                                   
     3      (1,1,4)               0.0000000      UZF03                                   
     4      (1,1,5)               0.0000000      UZF04                                   
     5      (1,1,6)               0.0000000      UZF05                                   
     6      (1,1,7)               0.0000000      UZF06                                   
     7      (1,1,8)               0.0000000      UZF07                                   
     8      (1,1,9)               0.0000000      UZF08                                   
     9      (2,1,2)               0.0000000      UZF08                                   
     10     (2,1,3)               0.0000000      UZF10                                   
     11     (2,1,4)               0.0000000      UZF11                                   
     12     (2,1,5)               0.0000000      UZF12                                   
     13     (2,1,6)               0.0000000      UZF13                                   
     14     (2,1,7)               0.0000000      UZF14                                   
     15     (2,1,8)               0.0000000      UZF15                                   
     16     (2,1,9)               0.0000000      UZF16                                   
     17     (3,1,2)               0.0000000      UZF17                                   
     18     (3,1,3)               0.0000000      UZF18                                   
     19     (3,1,4)               0.0000000      UZF19                                   
     20     (3,1,5)               0.0000000      UZF20                                   
     21     (3,1,6)               0.0000000      UZF21                                   
     22     (3,1,7)               0.0000000      UZF22                                   
     23     (3,1,8)               0.0000000      UZF23                                   
     24     (3,1,9)               0.0000000      UZF24                                   
 ----------------------------------------------------------------------------------------




 UZF-GWET PACKAGE (UZF-1) FLOW RATES   PERIOD      2   STEP        5
 ----------------------------------------------------------------------------------------
   NUMBER   CELLID                    RATE       NAME                                    
 ----------------------------------------------------------------------------------------
     1      (1,1,2)               0.0000000      UZF01                                   
     2      (1,1,3)               0.0000000      UZF02                                   
     3      (1,1,4)               0.0000000      UZF03                                   
     4      (1,1,5)               0.0000000      UZF04                                   
     5      (1,1,6)               0.0000000      UZF05                                   
     6      (1,1,7)               0.0000000      UZF06                                   
     7      (1,1,8)               0.0000000      UZF07                                   
     8      (1,1,9)               0.0000000      UZF08                                   
     9      (2,1,2)               0.0000000      UZF08                                   
     10     (2,1,3)               0.0000000      UZF10                                   
     11     (2,1,4)               0.0000000      UZF11                                   
     12     (2,1,5)               0.0000000      UZF12                                   
     13     (2,1,6)               0.0000000      UZF13                                   
     14     (2,1,7)               0.0000000      UZF14                                   
     15     (2,1,8)               0.0000000      UZF15                                   
     16     (2,1,9)               0.0000000      UZF16                                   
     17     (3,1,2)               0.0000000      UZF17                                   
     18     (3,1,3)               0.0000000      UZF18                                   
     19     (3,1,4)               0.0000000      UZF19                                   
     20     (3,1,5)               0.0000000      UZF20                                   
     21     (3,1,6)               0.0000000      UZF21                                   
     22     (3,1,7)               0.0000000      UZF22                                   
     23     (3,1,8)               0.0000000      UZF23                                   
     24     (3,1,9)               0.0000000      UZF24                                   
 ----------------------------------------------------------------------------------------




 UZF-1 PACKAGE - SUMMARY OF FLOWS FOR EACH CONTROL VOLUME   PERIOD      2   STEP        5
 ----------------------------------------------------------------------------------------------------------------------------------------------------
                                                                                                                                           PERCENT   
   NUMBER   CELLID                  INFLOW      OUTFLOW        GWF      INFILTRATION   REJ INF        UZET       STORAGE      IN - OUT    DIFFERENCE 
 ----------------------------------------------------------------------------------------------------------------------------------------------------
     1      (1,1,2)               0.0000       0.0000       0.0000       1000.0       0.0000      -3.79468E-02 -999.96      -9.09495E-13 -9.09495E-14
     2      (1,1,3)               0.0000       0.0000       0.0000       1000.0       0.0000      -3.79468E-02 -999.96      -9.09495E-13 -9.09495E-14
     3      (1,1,4)               0.0000       0.0000       0.0000       1000.0       0.0000      -3.79468E-02 -999.96      -9.09495E-13 -9.09495E-14
     4      (1,1,5)               0.0000       0.0000       0.0000       1000.0       0.0000      -3.79468E-02 -999.96      -9.09495E-13 -9.09495E-14
     5      (1,1,6)               0.0000       0.0000       0.0000       1000.0       0.0000      -3.79468E-02 -999.96      -9.09495E-13 -9.09495E-14
     6      (1,1,7)               0.0000       0.0000       0.0000       1000.0       0.0000      -3.79468E-02 -999.96      -9.09495E-13 -9.09495E-14
     7      (1,1,8)               0.0000       0.0000       0.0000       1000.0       0.0000      -3.79468E-02 -999.96      -9.09495E-13 -9.09495E-14
     8      (1,1,9)               0.0000       0.0000       0.0000       1000.0       0.0000      -3.79468E-02 -999.96      -9.09495E-13 -9.09495E-14
     9      (2,1,2)               0.0000       0.0000       0.0000       0.0000       0.0000       0.0000       0.0000       0.0000       0.0000     
     10     (2,1,3)               0.0000       0.0000       0.0000       0.0000       0.0000       0.0000       0.0000       0.0000       0.0000     
     11     (2,1,4)               0.0000       0.0000       0.0000       0.0000       0.0000       0.0000       0.0000       0.0000       0.0000     
     12     (2,1,5)               0.0000       0.0000       0.0000       0.0000       0.0000       0.0000       0.0000       0.0000       0.0000     
     13     (2,1,6)               0.0000       0.0000       0.0000       0.0000       0.0000       0.0000       0.0000       0.0000       0.0000     
     14     (2,1,7)               0.0000       0.0000       0.0000       0.0000       0.0000       0.0000       0.0000       0.0000       0.0000     
     15     (2,1,8)               0.0000       0.0000       0.0000       0.0000       0.0000       0.0000       0.0000       0.0000       0.0000     
     16     (2,1,9)               0.0000       0.0000       0.0000       0.0000       0.0000       0.0000       0.0000       0.0000       0.0000     
     17     (3,1,2)               0.0000       0.0000       0.0000       0.0000       0.0000       0.0000       0.0000       0.0000       0.0000     
     18     (3,1,3)               0.0000       0.0000       0.0000       0.0000       0.0000       0.0000       0.0000       0.0000       0.0000     
     19     (3,1,4)               0.0000       0.0000       0.0000       0.0000       0.0000       0.0000       0.0000       0.0000       0.0000     
     20     (3,1,5)               0.0000       0.0000       0.0000       0.0000       0.0000       0.0000       0.0000       0.0000       0.0000     
     21     (3,1,6)               0.0000       0.0000       0.0000       0.0000       0.0000       0.0000       0.0000       0.0000       0.0000     
     22     (3,1,7)               0.0000       0.0000       0.0000       0.0000       0.0000       0.0000       0.0000       0.0000       0.0000     
     23     (3,1,8)               0.0000       0.0000       0.0000       0.0000       0.0000       0.0000       0.0000       0.0000       0.0000     
     24     (3,1,9)               0.0000       0.0000       0.0000       0.0000       0.0000       0.0000       0.0000       0.0000       0.0000     
 ----------------------------------------------------------------------------------------------------------------------------------------------------


1
  HEAD IN LAYER   1 AT END OF TIME STEP   5 IN STRESS PERIOD    2
  ---------------------------------------------------------------------------

            1           2           3           4           5           6           7           8           9          10
 ........................................................................................................................
   1   -25.00      -25.00      -25.00      -25.00      -25.00      -25.00      -25.00      -25.00      -25.00      -25.00    
1
  HEAD IN LAYER   2 AT END OF TIME STEP   5 IN STRESS PERIOD    2
  ---------------------------------------------------------------------------

            1           2           3           4           5           6           7           8           9          10
 ........................................................................................................................
   1   -25.00      -25.00      -25.00      -25.00      -25.00      -25.00      -25.00      -25.00      -25.00      -25.00    
1
  HEAD IN LAYER   3 AT END OF TIME STEP   5 IN STRESS PERIOD    2
  ---------------------------------------------------------------------------

            1           2           3           4           5           6           7           8           9          10
 ........................................................................................................................
   1   -25.00      -25.00      -25.00      -25.00      -25.00      -25.00      -25.00      -25.00      -25.00      -25.00    

 HEAD WILL BE SAVED ON UNIT 1022 AT END OF TIME STEP    5, STRESS PERIOD    2


  UZF-1 BUDGET FOR ENTIRE MODEL AT END OF TIME STEP    5, STRESS PERIOD   2
  ------------------------------------------------------------------------------

     CUMULATIVE UZF-1      L**3       RATES FOR THIS TIME STEP      L**3/T
     ------------------                 ------------------------

           IN:                                      IN:
           ---                                      ---
                 GWF =           0.0000                   GWF =           0.0000
        INFILTRATION =      240000.0000          INFILTRATION =        8000.0000
             REJ-INF =           0.0000               REJ-INF =           0.0000
                UZET =           0.0000                  UZET =           0.0000
             STORAGE =           0.0000               STORAGE =           0.0000

            TOTAL IN =      240000.0000              TOTAL IN =        8000.0000

          OUT:                                     OUT:
          ----                                     ----
                 GWF =           0.0000                   GWF =           0.0000
        INFILTRATION =           0.0000          INFILTRATION =           0.0000
             REJ-INF =           0.0000               REJ-INF =           0.0000
                UZET =           5.7567                  UZET =           0.3036
             STORAGE =      239994.2433               STORAGE =        7999.6964

           TOTAL OUT =      240000.0000             TOTAL OUT =        8000.0000

            IN - OUT =       1.7987E-06              IN - OUT =      -7.2760E-12

 PERCENT DISCREPANCY =           0.00     PERCENT DISCREPANCY =          -0.00



  VOLUME BUDGET FOR ENTIRE MODEL AT END OF TIME STEP    5, STRESS PERIOD   2
  ---------------------------------------------------------------------------------------------------

     CUMULATIVE VOLUME      L**3       RATES FOR THIS TIME STEP      L**3/T          PACKAGE NAME    
     ------------------                 ------------------------                     ----------------

           IN:                                      IN:
           ---                                      ---
              STO-SS =           0.0000                STO-SS =           0.0000     STORAGE         
              STO-SY =           0.0000                STO-SY =           0.0000     STORAGE         
                 CHD =           0.0000                   CHD =           0.0000     CHD-1           
           UZF-GWRCH =           0.0000             UZF-GWRCH =           0.0000     UZF-1           
             UZF-GWD =           0.0000               UZF-GWD =           0.0000     UZF-1           
            UZF-GWET =           0.0000              UZF-GWET =           0.0000     UZF-1           

            TOTAL IN =           0.0000              TOTAL IN =           0.0000

          OUT:                                     OUT:
          ----                                     ----
              STO-SS =           0.0000                STO-SS =           0.0000     STORAGE         
              STO-SY =           0.0000                STO-SY =           0.0000     STORAGE         
                 CHD =           0.0000                   CHD =           0.0000     CHD-1           
           UZF-GWRCH =           0.0000             UZF-GWRCH =           0.0000     UZF-1           
             UZF-GWD =           0.0000               UZF-GWD =           0.0000     UZF-1           
            UZF-GWET =           0.0000              UZF-GWET =           0.0000     UZF-1           

           TOTAL OUT =           0.0000             TOTAL OUT =           0.0000

            IN - OUT =           0.0000              IN - OUT =           0.0000

 PERCENT DISCREPANCY =           0.00     PERCENT DISCREPANCY =           0.00




         TIME SUMMARY AT END OF TIME STEP    5 IN STRESS PERIOD    2
                    SECONDS     MINUTES      HOURS       DAYS        YEARS
                    -----------------------------------------------------------
   TIME STEP LENGTH 1.72800E+05  2880.0      48.000      2.0000     5.47570E-03
 STRESS PERIOD TIME 8.64000E+05  14400.      240.00      10.000     2.73785E-02
         TOTAL TIME 2.59200E+06  43200.      720.00      30.000     8.21355E-02


end timestep


start timestep kper="2" kstp="6" mode="normal"

 UBDSV1 SAVING     FLOW-JA-FACE ON UNIT   1020 AT TIME STEP      6, STRESS PERIOD      2
 UBDSV06 SAVING     FLOW-JA-FACE IN MODEL GWF_1            PACKAGE UZF-1           CONNECTED TO MODEL GWF_1            PACKAGE UZF-1            ON UNIT   1014 AT TIME STEP      6, STRESS PERIOD      2
 UBDSV06 SAVING              GWF IN MODEL GWF_1            PACKAGE UZF-1           CONNECTED TO MODEL GWF_1            PACKAGE GWF_1            ON UNIT   1014 AT TIME STEP      6, STRESS PERIOD      2
 UBDSV06 SAVING     INFILTRATION IN MODEL GWF_1            PACKAGE UZF-1           CONNECTED TO MODEL GWF_1            PACKAGE UZF-1            ON UNIT   1014 AT TIME STEP      6, STRESS PERIOD      2
 UBDSV06 SAVING          REJ-INF IN MODEL GWF_1            PACKAGE UZF-1           CONNECTED TO MODEL GWF_1            PACKAGE UZF-1            ON UNIT   1014 AT TIME STEP      6, STRESS PERIOD      2
 UBDSV06 SAVING             UZET IN MODEL GWF_1            PACKAGE UZF-1           CONNECTED TO MODEL GWF_1            PACKAGE UZF-1            ON UNIT   1014 AT TIME STEP      6, STRESS PERIOD      2
 UBDSV06 SAVING          STORAGE IN MODEL GWF_1            PACKAGE UZF-1           CONNECTED TO MODEL GWF_1            PACKAGE UZF-1            ON UNIT   1014 AT TIME STEP      6, STRESS PERIOD      2

 CHD PACKAGE (CHD-1) FLOW RATES   PERIOD      2   STEP        6
 -----------------------------------------------
   NUMBER   CELLID                    RATE      
 -----------------------------------------------
     1      (3,1,1)               0.0000000     
     2      (3,1,10)              0.0000000     
 -----------------------------------------------




 UZF-GWRCH PACKAGE (UZF-1) FLOW RATES   PERIOD      2   STEP        6
 ----------------------------------------------------------------------------------------
   NUMBER   CELLID                    RATE       NAME                                    
 ----------------------------------------------------------------------------------------
     1      (1,1,2)               0.0000000      UZF01                                   
     2      (1,1,3)               0.0000000      UZF02                                   
     3      (1,1,4)               0.0000000      UZF03                                   
     4      (1,1,5)               0.0000000      UZF04                                   
     5      (1,1,6)               0.0000000      UZF05                                   
     6      (1,1,7)               0.0000000      UZF06                                   
     7      (1,1,8)               0.0000000      UZF07                                   
     8      (1,1,9)               0.0000000      UZF08                                   
     9      (2,1,2)               0.0000000      UZF08                                   
     10     (2,1,3)               0.0000000      UZF10                                   
     11     (2,1,4)               0.0000000      UZF11                                   
     12     (2,1,5)               0.0000000      UZF12                                   
     13     (2,1,6)               0.0000000      UZF13                                   
     14     (2,1,7)               0.0000000      UZF14                                   
     15     (2,1,8)               0.0000000      UZF15                                   
     16     (2,1,9)               0.0000000      UZF16                                   
     17     (3,1,2)               0.0000000      UZF17                                   
     18     (3,1,3)               0.0000000      UZF18                                   
     19     (3,1,4)               0.0000000      UZF19                                   
     20     (3,1,5)               0.0000000      UZF20                                   
     21     (3,1,6)               0.0000000      UZF21                                   
     22     (3,1,7)               0.0000000      UZF22                                   
     23     (3,1,8)               0.0000000      UZF23                                   
     24     (3,1,9)               0.0000000      UZF24                                   
 ----------------------------------------------------------------------------------------




 UZF-GWD PACKAGE (UZF-1) FLOW RATES   PERIOD      2   STEP        6
 ----------------------------------------------------------------------------------------
   NUMBER   CELLID                    RATE       NAME                                    
 ----------------------------------------------------------------------------------------
     1      (1,1,2)               0.0000000      UZF01                                   
     2      (1,1,3)               0.0000000      UZF02                                   
     3      (1,1,4)               0.0000000      UZF03                                   
     4      (1,1,5)               0.0000000      UZF04                                   
     5      (1,1,6)               0.0000000      UZF05                                   
     6      (1,1,7)               0.0000000      UZF06                                   
     7      (1,1,8)               0.0000000      UZF07                                   
     8      (1,1,9)               0.0000000      UZF08                                   
     9      (2,1,2)               0.0000000      UZF08                                   
     10     (2,1,3)               0.0000000      UZF10                                   
     11     (2,1,4)               0.0000000      UZF11                                   
     12     (2,1,5)               0.0000000      UZF12                                   
     13     (2,1,6)               0.0000000      UZF13                                   
     14     (2,1,7)               0.0000000      UZF14                                   
     15     (2,1,8)               0.0000000      UZF15                                   
     16     (2,1,9)               0.0000000      UZF16                                   
     17     (3,1,2)               0.0000000      UZF17                                   
     18     (3,1,3)               0.0000000      UZF18                                   
     19     (3,1,4)               0.0000000      UZF19                                   
     20     (3,1,5)               0.0000000      UZF20                                   
     21     (3,1,6)               0.0000000      UZF21                                   
     22     (3,1,7)               0.0000000      UZF22                                   
     23     (3,1,8)               0.0000000      UZF23                                   
     24     (3,1,9)               0.0000000      UZF24                                   
 ----------------------------------------------------------------------------------------




 UZF-GWET PACKAGE (UZF-1) FLOW RATES   PERIOD      2   STEP        6
 ----------------------------------------------------------------------------------------
   NUMBER   CELLID                    RATE       NAME                                    
 ----------------------------------------------------------------------------------------
     1      (1,1,2)               0.0000000      UZF01                                   
     2      (1,1,3)               0.0000000      UZF02                                   
     3      (1,1,4)               0.0000000      UZF03                                   
     4      (1,1,5)               0.0000000      UZF04                                   
     5      (1,1,6)               0.0000000      UZF05                                   
     6      (1,1,7)               0.0000000      UZF06                                   
     7      (1,1,8)               0.0000000      UZF07                                   
     8      (1,1,9)               0.0000000      UZF08                                   
     9      (2,1,2)               0.0000000      UZF08                                   
     10     (2,1,3)               0.0000000      UZF10                                   
     11     (2,1,4)               0.0000000      UZF11                                   
     12     (2,1,5)               0.0000000      UZF12                                   
     13     (2,1,6)               0.0000000      UZF13                                   
     14     (2,1,7)               0.0000000      UZF14                                   
     15     (2,1,8)               0.0000000      UZF15                                   
     16     (2,1,9)               0.0000000      UZF16                                   
     17     (3,1,2)               0.0000000      UZF17                                   
     18     (3,1,3)               0.0000000      UZF18                                   
     19     (3,1,4)               0.0000000      UZF19                                   
     20     (3,1,5)               0.0000000      UZF20                                   
     21     (3,1,6)               0.0000000      UZF21                                   
     22     (3,1,7)               0.0000000      UZF22                                   
     23     (3,1,8)               0.0000000      UZF23                                   
     24     (3,1,9)               0.0000000      UZF24                                   
 ----------------------------------------------------------------------------------------




 UZF-1 PACKAGE - SUMMARY OF FLOWS FOR EACH CONTROL VOLUME   PERIOD      2   STEP        6
 ----------------------------------------------------------------------------------------------------------------------------------------------------
                                                                                                                                           PERCENT   
   NUMBER   CELLID                  INFLOW      OUTFLOW        GWF      INFILTRATION   REJ INF        UZET       STORAGE      IN - OUT    DIFFERENCE 
 ----------------------------------------------------------------------------------------------------------------------------------------------------
     1      (1,1,2)               0.0000       0.0000       0.0000       1000.0       0.0000      -4.49740E-02 -999.96      -9.09495E-13 -9.09495E-14
     2      (1,1,3)               0.0000       0.0000       0.0000       1000.0       0.0000      -4.49740E-02 -999.96      -9.09495E-13 -9.09495E-14
     3      (1,1,4)               0.0000       0.0000       0.0000       1000.0       0.0000      -4.49740E-02 -999.96      -9.09495E-13 -9.09495E-14
     4      (1,1,5)               0.0000       0.0000       0.0000       1000.0       0.0000      -4.49740E-02 -999.96      -9.09495E-13 -9.09495E-14
     5      (1,1,6)               0.0000       0.0000       0.0000       1000.0       0.0000      -4.49740E-02 -999.96      -9.09495E-13 -9.09495E-14
     6      (1,1,7)               0.0000       0.0000       0.0000       1000.0       0.0000      -4.49740E-02 -999.96      -9.09495E-13 -9.09495E-14
     7      (1,1,8)               0.0000       0.0000       0.0000       1000.0       0.0000      -4.49740E-02 -999.96      -9.09495E-13 -9.09495E-14
     8      (1,1,9)               0.0000       0.0000       0.0000       1000.0       0.0000      -4.49740E-02 -999.96      -9.09495E-13 -9.09495E-14
     9      (2,1,2)               0.0000       0.0000       0.0000       0.0000       0.0000       0.0000       0.0000       0.0000       0.0000     
     10     (2,1,3)               0.0000       0.0000       0.0000       0.0000       0.0000       0.0000       0.0000       0.0000       0.0000     
     11     (2,1,4)               0.0000       0.0000       0.0000       0.0000       0.0000       0.0000       0.0000       0.0000       0.0000     
     12     (2,1,5)               0.0000       0.0000       0.0000       0.0000       0.0000       0.0000       0.0000       0.0000       0.0000     
     13     (2,1,6)               0.0000       0.0000       0.0000       0.0000       0.0000       0.0000       0.0000       0.0000       0.0000     
     14     (2,1,7)               0.0000       0.0000       0.0000       0.0000       0.0000       0.0000       0.0000       0.0000       0.0000     
     15     (2,1,8)               0.0000       0.0000       0.0000       0.0000       0.0000       0.0000       0.0000       0.0000       0.0000     
     16     (2,1,9)               0.0000       0.0000       0.0000       0.0000       0.0000       0.0000       0.0000       0.0000       0.0000     
     17     (3,1,2)               0.0000       0.0000       0.0000       0.0000       0.0000       0.0000       0.0000       0.0000       0.0000     
     18     (3,1,3)               0.0000       0.0000       0.0000       0.0000       0.0000       0.0000       0.0000       0.0000       0.0000     
     19     (3,1,4)               0.0000       0.0000       0.0000       0.0000       0.0000       0.0000       0.0000       0.0000       0.0000     
     20     (3,1,5)               0.0000       0.0000       0.0000       0.0000       0.0000       0.0000       0.0000       0.0000       0.0000     
     21     (3,1,6)               0.0000       0.0000       0.0000       0.0000       0.0000       0.0000       0.0000       0.0000       0.0000     
     22     (3,1,7)               0.0000       0.0000       0.0000       0.0000       0.0000       0.0000       0.0000       0.0000       0.0000     
     23     (3,1,8)               0.0000       0.0000       0.0000       0.0000       0.0000       0.0000       0.0000       0.0000       0.0000     
     24     (3,1,9)               0.0000       0.0000       0.0000       0.0000       0.0000       0.0000       0.0000       0.0000       0.0000     
 ----------------------------------------------------------------------------------------------------------------------------------------------------


1
  HEAD IN LAYER   1 AT END OF TIME STEP   6 IN STRESS PERIOD    2
  ---------------------------------------------------------------------------

            1           2           3           4           5           6           7           8           9          10
 ........................................................................................................................
   1   -25.00      -25.00      -25.00      -25.00      -25.00      -25.00      -25.00      -25.00      -25.00      -25.00    
1
  HEAD IN LAYER   2 AT END OF TIME STEP   6 IN STRESS PERIOD    2
  ---------------------------------------------------------------------------

            1           2           3           4           5           6           7           8           9          10
 ........................................................................................................................
   1   -25.00      -25.00      -25.00      -25.00      -25.00      -25.00      -25.00      -25.00      -25.00      -25.00    
1
  HEAD IN LAYER   3 AT END OF TIME STEP   6 IN STRESS PERIOD    2
  ---------------------------------------------------------------------------

            1           2           3           4           5           6           7           8           9          10
 ........................................................................................................................
   1   -25.00      -25.00      -25.00      -25.00      -25.00      -25.00      -25.00      -25.00      -25.00      -25.00    

 HEAD WILL BE SAVED ON UNIT 1022 AT END OF TIME STEP    6, STRESS PERIOD    2


  UZF-1 BUDGET FOR ENTIRE MODEL AT END OF TIME STEP    6, STRESS PERIOD   2
  ------------------------------------------------------------------------------

     CUMULATIVE UZF-1      L**3       RATES FOR THIS TIME STEP      L**3/T
     ------------------                 ------------------------

           IN:                                      IN:
           ---                                      ---
                 GWF =           0.0000                   GWF =           0.0000
        INFILTRATION =      256000.0000          INFILTRATION =        8000.0000
             REJ-INF =           0.0000               REJ-INF =           0.0000
                UZET =           0.0000                  UZET =           0.0000
             STORAGE =           0.0000               STORAGE =           0.0000

            TOTAL IN =      256000.0000              TOTAL IN =        8000.0000

          OUT:                                     OUT:
          ----                                     ----
                 GWF =           0.0000                   GWF =           0.0000
        INFILTRATION =           0.0000          INFILTRATION =           0.0000
             REJ-INF =           0.0000               REJ-INF =           0.0000
                UZET =           6.4763                  UZET =           0.3598
             STORAGE =      255993.5237               STORAGE =        7999.6402

           TOTAL OUT =      256000.0000             TOTAL OUT =        8000.0000

            IN - OUT =       1.7987E-06              IN - OUT =      -6.3665E-12

 PERCENT DISCREPANCY =           0.00     PERCENT DISCREPANCY =          -0.00



  VOLUME BUDGET FOR ENTIRE MODEL AT END OF TIME STEP    6, STRESS PERIOD   2
  ---------------------------------------------------------------------------------------------------

     CUMULATIVE VOLUME      L**3       RATES FOR THIS TIME STEP      L**3/T          PACKAGE NAME    
     ------------------                 ------------------------                     ----------------

           IN:                                      IN:
           ---                                      ---
              STO-SS =           0.0000                STO-SS =           0.0000     STORAGE         
              STO-SY =           0.0000                STO-SY =           0.0000     STORAGE         
                 CHD =           0.0000                   CHD =           0.0000     CHD-1           
           UZF-GWRCH =           0.0000             UZF-GWRCH =           0.0000     UZF-1           
             UZF-GWD =           0.0000               UZF-GWD =           0.0000     UZF-1           
            UZF-GWET =           0.0000              UZF-GWET =           0.0000     UZF-1           

            TOTAL IN =           0.0000              TOTAL IN =           0.0000

          OUT:                                     OUT:
          ----                                     ----
              STO-SS =           0.0000                STO-SS =           0.0000     STORAGE         
              STO-SY =           0.0000                STO-SY =           0.0000     STORAGE         
                 CHD =           0.0000                   CHD =           0.0000     CHD-1           
           UZF-GWRCH =           0.0000             UZF-GWRCH =           0.0000     UZF-1           
             UZF-GWD =           0.0000               UZF-GWD =           0.0000     UZF-1           
            UZF-GWET =           0.0000              UZF-GWET =           0.0000     UZF-1           

           TOTAL OUT =           0.0000             TOTAL OUT =           0.0000

            IN - OUT =           0.0000              IN - OUT =           0.0000

 PERCENT DISCREPANCY =           0.00     PERCENT DISCREPANCY =           0.00




         TIME SUMMARY AT END OF TIME STEP    6 IN STRESS PERIOD    2
                    SECONDS     MINUTES      HOURS       DAYS        YEARS
                    -----------------------------------------------------------
   TIME STEP LENGTH 1.72800E+05  2880.0      48.000      2.0000     5.47570E-03
 STRESS PERIOD TIME 1.03680E+06  17280.      288.00      12.000     3.28542E-02
         TOTAL TIME 2.76480E+06  46080.      768.00      32.000     8.76112E-02


end timestep


start timestep kper="2" kstp="7" mode="normal"

 UBDSV1 SAVING     FLOW-JA-FACE ON UNIT   1020 AT TIME STEP      7, STRESS PERIOD      2
 UBDSV06 SAVING     FLOW-JA-FACE IN MODEL GWF_1            PACKAGE UZF-1           CONNECTED TO MODEL GWF_1            PACKAGE UZF-1            ON UNIT   1014 AT TIME STEP      7, STRESS PERIOD      2
 UBDSV06 SAVING              GWF IN MODEL GWF_1            PACKAGE UZF-1           CONNECTED TO MODEL GWF_1            PACKAGE GWF_1            ON UNIT   1014 AT TIME STEP      7, STRESS PERIOD      2
 UBDSV06 SAVING     INFILTRATION IN MODEL GWF_1            PACKAGE UZF-1           CONNECTED TO MODEL GWF_1            PACKAGE UZF-1            ON UNIT   1014 AT TIME STEP      7, STRESS PERIOD      2
 UBDSV06 SAVING          REJ-INF IN MODEL GWF_1            PACKAGE UZF-1           CONNECTED TO MODEL GWF_1            PACKAGE UZF-1            ON UNIT   1014 AT TIME STEP      7, STRESS PERIOD      2
 UBDSV06 SAVING             UZET IN MODEL GWF_1            PACKAGE UZF-1           CONNECTED TO MODEL GWF_1            PACKAGE UZF-1            ON UNIT   1014 AT TIME STEP      7, STRESS PERIOD      2
 UBDSV06 SAVING          STORAGE IN MODEL GWF_1            PACKAGE UZF-1           CONNECTED TO MODEL GWF_1            PACKAGE UZF-1            ON UNIT   1014 AT TIME STEP      7, STRESS PERIOD      2

 CHD PACKAGE (CHD-1) FLOW RATES   PERIOD      2   STEP        7
 -----------------------------------------------
   NUMBER   CELLID                    RATE      
 -----------------------------------------------
     1      (3,1,1)               0.0000000     
     2      (3,1,10)              0.0000000     
 -----------------------------------------------




 UZF-GWRCH PACKAGE (UZF-1) FLOW RATES   PERIOD      2   STEP        7
 ----------------------------------------------------------------------------------------
   NUMBER   CELLID                    RATE       NAME                                    
 ----------------------------------------------------------------------------------------
     1      (1,1,2)               0.0000000      UZF01                                   
     2      (1,1,3)               0.0000000      UZF02                                   
     3      (1,1,4)               0.0000000      UZF03                                   
     4      (1,1,5)               0.0000000      UZF04                                   
     5      (1,1,6)               0.0000000      UZF05                                   
     6      (1,1,7)               0.0000000      UZF06                                   
     7      (1,1,8)               0.0000000      UZF07                                   
     8      (1,1,9)               0.0000000      UZF08                                   
     9      (2,1,2)               0.0000000      UZF08                                   
     10     (2,1,3)               0.0000000      UZF10                                   
     11     (2,1,4)               0.0000000      UZF11                                   
     12     (2,1,5)               0.0000000      UZF12                                   
     13     (2,1,6)               0.0000000      UZF13                                   
     14     (2,1,7)               0.0000000      UZF14                                   
     15     (2,1,8)               0.0000000      UZF15                                   
     16     (2,1,9)               0.0000000      UZF16                                   
     17     (3,1,2)               0.0000000      UZF17                                   
     18     (3,1,3)               0.0000000      UZF18                                   
     19     (3,1,4)               0.0000000      UZF19                                   
     20     (3,1,5)               0.0000000      UZF20                                   
     21     (3,1,6)               0.0000000      UZF21                                   
     22     (3,1,7)               0.0000000      UZF22                                   
     23     (3,1,8)               0.0000000      UZF23                                   
     24     (3,1,9)               0.0000000      UZF24                                   
 ----------------------------------------------------------------------------------------




 UZF-GWD PACKAGE (UZF-1) FLOW RATES   PERIOD      2   STEP        7
 ----------------------------------------------------------------------------------------
   NUMBER   CELLID                    RATE       NAME                                    
 ----------------------------------------------------------------------------------------
     1      (1,1,2)               0.0000000      UZF01                                   
     2      (1,1,3)               0.0000000      UZF02                                   
     3      (1,1,4)               0.0000000      UZF03                                   
     4      (1,1,5)               0.0000000      UZF04                                   
     5      (1,1,6)               0.0000000      UZF05                                   
     6      (1,1,7)               0.0000000      UZF06                                   
     7      (1,1,8)               0.0000000      UZF07                                   
     8      (1,1,9)               0.0000000      UZF08                                   
     9      (2,1,2)               0.0000000      UZF08                                   
     10     (2,1,3)               0.0000000      UZF10                                   
     11     (2,1,4)               0.0000000      UZF11                                   
     12     (2,1,5)               0.0000000      UZF12                                   
     13     (2,1,6)               0.0000000      UZF13                                   
     14     (2,1,7)               0.0000000      UZF14                                   
     15     (2,1,8)               0.0000000      UZF15                                   
     16     (2,1,9)               0.0000000      UZF16                                   
     17     (3,1,2)               0.0000000      UZF17                                   
     18     (3,1,3)               0.0000000      UZF18                                   
     19     (3,1,4)               0.0000000      UZF19                                   
     20     (3,1,5)               0.0000000      UZF20                                   
     21     (3,1,6)               0.0000000      UZF21                                   
     22     (3,1,7)               0.0000000      UZF22                                   
     23     (3,1,8)               0.0000000      UZF23                                   
     24     (3,1,9)               0.0000000      UZF24                                   
 ----------------------------------------------------------------------------------------




 UZF-GWET PACKAGE (UZF-1) FLOW RATES   PERIOD      2   STEP        7
 ----------------------------------------------------------------------------------------
   NUMBER   CELLID                    RATE       NAME                                    
 ----------------------------------------------------------------------------------------
     1      (1,1,2)               0.0000000      UZF01                                   
     2      (1,1,3)               0.0000000      UZF02                                   
     3      (1,1,4)               0.0000000      UZF03                                   
     4      (1,1,5)               0.0000000      UZF04                                   
     5      (1,1,6)               0.0000000      UZF05                                   
     6      (1,1,7)               0.0000000      UZF06                                   
     7      (1,1,8)               0.0000000      UZF07                                   
     8      (1,1,9)               0.0000000      UZF08                                   
     9      (2,1,2)               0.0000000      UZF08                                   
     10     (2,1,3)               0.0000000      UZF10                                   
     11     (2,1,4)               0.0000000      UZF11                                   
     12     (2,1,5)               0.0000000      UZF12                                   
     13     (2,1,6)               0.0000000      UZF13                                   
     14     (2,1,7)               0.0000000      UZF14                                   
     15     (2,1,8)               0.0000000      UZF15                                   
     16     (2,1,9)               0.0000000      UZF16                                   
     17     (3,1,2)               0.0000000      UZF17                                   
     18     (3,1,3)               0.0000000      UZF18                                   
     19     (3,1,4)               0.0000000      UZF19                                   
     20     (3,1,5)               0.0000000      UZF20                                   
     21     (3,1,6)               0.0000000      UZF21                                   
     22     (3,1,7)               0.0000000      UZF22                                   
     23     (3,1,8)               0.0000000      UZF23                                   
     24     (3,1,9)               0.0000000      UZF24                                   
 ----------------------------------------------------------------------------------------




 UZF-1 PACKAGE - SUMMARY OF FLOWS FOR EACH CONTROL VOLUME   PERIOD      2   STEP        7
 ----------------------------------------------------------------------------------------------------------------------------------------------------
                                                                                                                                           PERCENT   
   NUMBER   CELLID                  INFLOW      OUTFLOW        GWF      INFILTRATION   REJ INF        UZET       STORAGE      IN - OUT    DIFFERENCE 
 ----------------------------------------------------------------------------------------------------------------------------------------------------
     1      (1,1,2)               0.0000       0.0000       0.0000       1000.0       0.0000      -5.20012E-02 -999.95      -9.09495E-13 -9.09495E-14
     2      (1,1,3)               0.0000       0.0000       0.0000       1000.0       0.0000      -5.20012E-02 -999.95      -9.09495E-13 -9.09495E-14
     3      (1,1,4)               0.0000       0.0000       0.0000       1000.0       0.0000      -5.20012E-02 -999.95      -9.09495E-13 -9.09495E-14
     4      (1,1,5)               0.0000       0.0000       0.0000       1000.0       0.0000      -5.20012E-02 -999.95      -9.09495E-13 -9.09495E-14
     5      (1,1,6)               0.0000       0.0000       0.0000       1000.0       0.0000      -5.20012E-02 -999.95      -9.09495E-13 -9.09495E-14
     6      (1,1,7)               0.0000       0.0000       0.0000       1000.0       0.0000      -5.20012E-02 -999.95      -9.09495E-13 -9.09495E-14
     7      (1,1,8)               0.0000       0.0000       0.0000       1000.0       0.0000      -5.20012E-02 -999.95      -9.09495E-13 -9.09495E-14
     8      (1,1,9)               0.0000       0.0000       0.0000       1000.0       0.0000      -5.20012E-02 -999.95      -9.09495E-13 -9.09495E-14
     9      (2,1,2)               0.0000       0.0000       0.0000       0.0000       0.0000       0.0000       0.0000       0.0000       0.0000     
     10     (2,1,3)               0.0000       0.0000       0.0000       0.0000       0.0000       0.0000       0.0000       0.0000       0.0000     
     11     (2,1,4)               0.0000       0.0000       0.0000       0.0000       0.0000       0.0000       0.0000       0.0000       0.0000     
     12     (2,1,5)               0.0000       0.0000       0.0000       0.0000       0.0000       0.0000       0.0000       0.0000       0.0000     
     13     (2,1,6)               0.0000       0.0000       0.0000       0.0000       0.0000       0.0000       0.0000       0.0000       0.0000     
     14     (2,1,7)               0.0000       0.0000       0.0000       0.0000       0.0000       0.0000       0.0000       0.0000       0.0000     
     15     (2,1,8)               0.0000       0.0000       0.0000       0.0000       0.0000       0.0000       0.0000       0.0000       0.0000     
     16     (2,1,9)               0.0000       0.0000       0.0000       0.0000       0.0000       0.0000       0.0000       0.0000       0.0000     
     17     (3,1,2)               0.0000       0.0000       0.0000       0.0000       0.0000       0.0000       0.0000       0.0000       0.0000     
     18     (3,1,3)               0.0000       0.0000       0.0000       0.0000       0.0000       0.0000       0.0000       0.0000       0.0000     
     19     (3,1,4)               0.0000       0.0000       0.0000       0.0000       0.0000       0.0000       0.0000       0.0000       0.0000     
     20     (3,1,5)               0.0000       0.0000       0.0000       0.0000       0.0000       0.0000       0.0000       0.0000       0.0000     
     21     (3,1,6)               0.0000       0.0000       0.0000       0.0000       0.0000       0.0000       0.0000       0.0000       0.0000     
     22     (3,1,7)               0.0000       0.0000       0.0000       0.0000       0.0000       0.0000       0.0000       0.0000       0.0000     
     23     (3,1,8)               0.0000       0.0000       0.0000       0.0000       0.0000       0.0000       0.0000       0.0000       0.0000     
     24     (3,1,9)               0.0000       0.0000       0.0000       0.0000       0.0000       0.0000       0.0000       0.0000       0.0000     
 ----------------------------------------------------------------------------------------------------------------------------------------------------


1
  HEAD IN LAYER   1 AT END OF TIME STEP   7 IN STRESS PERIOD    2
  ---------------------------------------------------------------------------

            1           2           3           4           5           6           7           8           9          10
 ........................................................................................................................
   1   -25.00      -25.00      -25.00      -25.00      -25.00      -25.00      -25.00      -25.00      -25.00      -25.00    
1
  HEAD IN LAYER   2 AT END OF TIME STEP   7 IN STRESS PERIOD    2
  ---------------------------------------------------------------------------

            1           2           3           4           5           6           7           8           9          10
 ........................................................................................................................
   1   -25.00      -25.00      -25.00      -25.00      -25.00      -25.00      -25.00      -25.00      -25.00      -25.00    
1
  HEAD IN LAYER   3 AT END OF TIME STEP   7 IN STRESS PERIOD    2
  ---------------------------------------------------------------------------

            1           2           3           4           5           6           7           8           9          10
 ........................................................................................................................
   1   -25.00      -25.00      -25.00      -25.00      -25.00      -25.00      -25.00      -25.00      -25.00      -25.00    

 HEAD WILL BE SAVED ON UNIT 1022 AT END OF TIME STEP    7, STRESS PERIOD    2


  UZF-1 BUDGET FOR ENTIRE MODEL AT END OF TIME STEP    7, STRESS PERIOD   2
  ------------------------------------------------------------------------------

     CUMULATIVE UZF-1      L**3       RATES FOR THIS TIME STEP      L**3/T
     ------------------                 ------------------------

           IN:                                      IN:
           ---                                      ---
                 GWF =           0.0000                   GWF =           0.0000
        INFILTRATION =      272000.0000          INFILTRATION =        8000.0000
             REJ-INF =           0.0000               REJ-INF =           0.0000
                UZET =           0.0000                  UZET =           0.0000
             STORAGE =           0.0000               STORAGE =           0.0000

            TOTAL IN =      272000.0000              TOTAL IN =        8000.0000

          OUT:                                     OUT:
          ----                                     ----
                 GWF =           0.0000                   GWF =           0.0000
        INFILTRATION =           0.0000          INFILTRATION =           0.0000
             REJ-INF =           0.0000               REJ-INF =           0.0000
                UZET =           7.3083                  UZET =           0.4160
             STORAGE =      271992.6917               STORAGE =        7999.5840

           TOTAL OUT =      272000.0000             TOTAL OUT =        8000.0000

            IN - OUT =       1.7987E-06              IN - OUT =      -7.2760E-12

 PERCENT DISCREPANCY =           0.00     PERCENT DISCREPANCY =          -0.00



  VOLUME BUDGET FOR ENTIRE MODEL AT END OF TIME STEP    7, STRESS PERIOD   2
  ---------------------------------------------------------------------------------------------------

     CUMULATIVE VOLUME      L**3       RATES FOR THIS TIME STEP      L**3/T          PACKAGE NAME    
     ------------------                 ------------------------                     ----------------

           IN:                                      IN:
           ---                                      ---
              STO-SS =           0.0000                STO-SS =           0.0000     STORAGE         
              STO-SY =           0.0000                STO-SY =           0.0000     STORAGE         
                 CHD =           0.0000                   CHD =           0.0000     CHD-1           
           UZF-GWRCH =           0.0000             UZF-GWRCH =           0.0000     UZF-1           
             UZF-GWD =           0.0000               UZF-GWD =           0.0000     UZF-1           
            UZF-GWET =           0.0000              UZF-GWET =           0.0000     UZF-1           

            TOTAL IN =           0.0000              TOTAL IN =           0.0000

          OUT:                                     OUT:
          ----                                     ----
              STO-SS =           0.0000                STO-SS =           0.0000     STORAGE         
              STO-SY =           0.0000                STO-SY =           0.0000     STORAGE         
                 CHD =           0.0000                   CHD =           0.0000     CHD-1           
           UZF-GWRCH =           0.0000             UZF-GWRCH =           0.0000     UZF-1           
             UZF-GWD =           0.0000               UZF-GWD =           0.0000     UZF-1           
            UZF-GWET =           0.0000              UZF-GWET =           0.0000     UZF-1           

           TOTAL OUT =           0.0000             TOTAL OUT =           0.0000

            IN - OUT =           0.0000              IN - OUT =           0.0000

 PERCENT DISCREPANCY =           0.00     PERCENT DISCREPANCY =           0.00




         TIME SUMMARY AT END OF TIME STEP    7 IN STRESS PERIOD    2
                    SECONDS     MINUTES      HOURS       DAYS        YEARS
                    -----------------------------------------------------------
   TIME STEP LENGTH 1.72800E+05  2880.0      48.000      2.0000     5.47570E-03
 STRESS PERIOD TIME 1.20960E+06  20160.      336.00      14.000     3.83299E-02
         TOTAL TIME 2.93760E+06  48960.      816.00      34.000     9.30869E-02


end timestep


start timestep kper="2" kstp="8" mode="normal"

 UBDSV1 SAVING     FLOW-JA-FACE ON UNIT   1020 AT TIME STEP      8, STRESS PERIOD      2
 UBDSV06 SAVING     FLOW-JA-FACE IN MODEL GWF_1            PACKAGE UZF-1           CONNECTED TO MODEL GWF_1            PACKAGE UZF-1            ON UNIT   1014 AT TIME STEP      8, STRESS PERIOD      2
 UBDSV06 SAVING              GWF IN MODEL GWF_1            PACKAGE UZF-1           CONNECTED TO MODEL GWF_1            PACKAGE GWF_1            ON UNIT   1014 AT TIME STEP      8, STRESS PERIOD      2
 UBDSV06 SAVING     INFILTRATION IN MODEL GWF_1            PACKAGE UZF-1           CONNECTED TO MODEL GWF_1            PACKAGE UZF-1            ON UNIT   1014 AT TIME STEP      8, STRESS PERIOD      2
 UBDSV06 SAVING          REJ-INF IN MODEL GWF_1            PACKAGE UZF-1           CONNECTED TO MODEL GWF_1            PACKAGE UZF-1            ON UNIT   1014 AT TIME STEP      8, STRESS PERIOD      2
 UBDSV06 SAVING             UZET IN MODEL GWF_1            PACKAGE UZF-1           CONNECTED TO MODEL GWF_1            PACKAGE UZF-1            ON UNIT   1014 AT TIME STEP      8, STRESS PERIOD      2
 UBDSV06 SAVING          STORAGE IN MODEL GWF_1            PACKAGE UZF-1           CONNECTED TO MODEL GWF_1            PACKAGE UZF-1            ON UNIT   1014 AT TIME STEP      8, STRESS PERIOD      2

 CHD PACKAGE (CHD-1) FLOW RATES   PERIOD      2   STEP        8
 -----------------------------------------------
   NUMBER   CELLID                    RATE      
 -----------------------------------------------
     1      (3,1,1)               0.0000000     
     2      (3,1,10)              0.0000000     
 -----------------------------------------------




 UZF-GWRCH PACKAGE (UZF-1) FLOW RATES   PERIOD      2   STEP        8
 ----------------------------------------------------------------------------------------
   NUMBER   CELLID                    RATE       NAME                                    
 ----------------------------------------------------------------------------------------
     1      (1,1,2)               0.0000000      UZF01                                   
     2      (1,1,3)               0.0000000      UZF02                                   
     3      (1,1,4)               0.0000000      UZF03                                   
     4      (1,1,5)               0.0000000      UZF04                                   
     5      (1,1,6)               0.0000000      UZF05                                   
     6      (1,1,7)               0.0000000      UZF06                                   
     7      (1,1,8)               0.0000000      UZF07                                   
     8      (1,1,9)               0.0000000      UZF08                                   
     9      (2,1,2)               0.0000000      UZF08                                   
     10     (2,1,3)               0.0000000      UZF10                                   
     11     (2,1,4)               0.0000000      UZF11                                   
     12     (2,1,5)               0.0000000      UZF12                                   
     13     (2,1,6)               0.0000000      UZF13                                   
     14     (2,1,7)               0.0000000      UZF14                                   
     15     (2,1,8)               0.0000000      UZF15                                   
     16     (2,1,9)               0.0000000      UZF16                                   
     17     (3,1,2)               0.0000000      UZF17                                   
     18     (3,1,3)               0.0000000      UZF18                                   
     19     (3,1,4)               0.0000000      UZF19                                   
     20     (3,1,5)               0.0000000      UZF20                                   
     21     (3,1,6)               0.0000000      UZF21                                   
     22     (3,1,7)               0.0000000      UZF22                                   
     23     (3,1,8)               0.0000000      UZF23                                   
     24     (3,1,9)               0.0000000      UZF24                                   
 ----------------------------------------------------------------------------------------




 UZF-GWD PACKAGE (UZF-1) FLOW RATES   PERIOD      2   STEP        8
 ----------------------------------------------------------------------------------------
   NUMBER   CELLID                    RATE       NAME                                    
 ----------------------------------------------------------------------------------------
     1      (1,1,2)               0.0000000      UZF01                                   
     2      (1,1,3)               0.0000000      UZF02                                   
     3      (1,1,4)               0.0000000      UZF03                                   
     4      (1,1,5)               0.0000000      UZF04                                   
     5      (1,1,6)               0.0000000      UZF05                                   
     6      (1,1,7)               0.0000000      UZF06                                   
     7      (1,1,8)               0.0000000      UZF07                                   
     8      (1,1,9)               0.0000000      UZF08                                   
     9      (2,1,2)               0.0000000      UZF08                                   
     10     (2,1,3)               0.0000000      UZF10                                   
     11     (2,1,4)               0.0000000      UZF11                                   
     12     (2,1,5)               0.0000000      UZF12                                   
     13     (2,1,6)               0.0000000      UZF13                                   
     14     (2,1,7)               0.0000000      UZF14                                   
     15     (2,1,8)               0.0000000      UZF15                                   
     16     (2,1,9)               0.0000000      UZF16                                   
     17     (3,1,2)               0.0000000      UZF17                                   
     18     (3,1,3)               0.0000000      UZF18                                   
     19     (3,1,4)               0.0000000      UZF19                                   
     20     (3,1,5)               0.0000000      UZF20                                   
     21     (3,1,6)               0.0000000      UZF21                                   
     22     (3,1,7)               0.0000000      UZF22                                   
     23     (3,1,8)               0.0000000      UZF23                                   
     24     (3,1,9)               0.0000000      UZF24                                   
 ----------------------------------------------------------------------------------------




 UZF-GWET PACKAGE (UZF-1) FLOW RATES   PERIOD      2   STEP        8
 ----------------------------------------------------------------------------------------
   NUMBER   CELLID                    RATE       NAME                                    
 ----------------------------------------------------------------------------------------
     1      (1,1,2)               0.0000000      UZF01                                   
     2      (1,1,3)               0.0000000      UZF02                                   
     3      (1,1,4)               0.0000000      UZF03                                   
     4      (1,1,5)               0.0000000      UZF04                                   
     5      (1,1,6)               0.0000000      UZF05                                   
     6      (1,1,7)               0.0000000      UZF06                                   
     7      (1,1,8)               0.0000000      UZF07                                   
     8      (1,1,9)               0.0000000      UZF08                                   
     9      (2,1,2)               0.0000000      UZF08                                   
     10     (2,1,3)               0.0000000      UZF10                                   
     11     (2,1,4)               0.0000000      UZF11                                   
     12     (2,1,5)               0.0000000      UZF12                                   
     13     (2,1,6)               0.0000000      UZF13                                   
     14     (2,1,7)               0.0000000      UZF14                                   
     15     (2,1,8)               0.0000000      UZF15                                   
     16     (2,1,9)               0.0000000      UZF16                                   
     17     (3,1,2)               0.0000000      UZF17                                   
     18     (3,1,3)               0.0000000      UZF18                                   
     19     (3,1,4)               0.0000000      UZF19                                   
     20     (3,1,5)               0.0000000      UZF20                                   
     21     (3,1,6)               0.0000000      UZF21                                   
     22     (3,1,7)               0.0000000      UZF22                                   
     23     (3,1,8)               0.0000000      UZF23                                   
     24     (3,1,9)               0.0000000      UZF24                                   
 ----------------------------------------------------------------------------------------




 UZF-1 PACKAGE - SUMMARY OF FLOWS FOR EACH CONTROL VOLUME   PERIOD      2   STEP        8
 ----------------------------------------------------------------------------------------------------------------------------------------------------
                                                                                                                                           PERCENT   
   NUMBER   CELLID                  INFLOW      OUTFLOW        GWF      INFILTRATION   REJ INF        UZET       STORAGE      IN - OUT    DIFFERENCE 
 ----------------------------------------------------------------------------------------------------------------------------------------------------
     1      (1,1,2)               0.0000       0.0000       0.0000       1000.0       0.0000      -5.90283E-02 -999.94      -7.95808E-13 -7.95808E-14
     2      (1,1,3)               0.0000       0.0000       0.0000       1000.0       0.0000      -5.90283E-02 -999.94      -7.95808E-13 -7.95808E-14
     3      (1,1,4)               0.0000       0.0000       0.0000       1000.0       0.0000      -5.90283E-02 -999.94      -7.95808E-13 -7.95808E-14
     4      (1,1,5)               0.0000       0.0000       0.0000       1000.0       0.0000      -5.90283E-02 -999.94      -7.95808E-13 -7.95808E-14
     5      (1,1,6)               0.0000       0.0000       0.0000       1000.0       0.0000      -5.90283E-02 -999.94      -7.95808E-13 -7.95808E-14
     6      (1,1,7)               0.0000       0.0000       0.0000       1000.0       0.0000      -5.90283E-02 -999.94      -7.95808E-13 -7.95808E-14
     7      (1,1,8)               0.0000       0.0000       0.0000       1000.0       0.0000      -5.90283E-02 -999.94      -7.95808E-13 -7.95808E-14
     8      (1,1,9)               0.0000       0.0000       0.0000       1000.0       0.0000      -5.90283E-02 -999.94      -7.95808E-13 -7.95808E-14
     9      (2,1,2)               0.0000       0.0000       0.0000       0.0000       0.0000       0.0000       0.0000       0.0000       0.0000     
     10     (2,1,3)               0.0000       0.0000       0.0000       0.0000       0.0000       0.0000       0.0000       0.0000       0.0000     
     11     (2,1,4)               0.0000       0.0000       0.0000       0.0000       0.0000       0.0000       0.0000       0.0000       0.0000     
     12     (2,1,5)               0.0000       0.0000       0.0000       0.0000       0.0000       0.0000       0.0000       0.0000       0.0000     
     13     (2,1,6)               0.0000       0.0000       0.0000       0.0000       0.0000       0.0000       0.0000       0.0000       0.0000     
     14     (2,1,7)               0.0000       0.0000       0.0000       0.0000       0.0000       0.0000       0.0000       0.0000       0.0000     
     15     (2,1,8)               0.0000       0.0000       0.0000       0.0000       0.0000       0.0000       0.0000       0.0000       0.0000     
     16     (2,1,9)               0.0000       0.0000       0.0000       0.0000       0.0000       0.0000       0.0000       0.0000       0.0000     
     17     (3,1,2)               0.0000       0.0000       0.0000       0.0000       0.0000       0.0000       0.0000       0.0000       0.0000     
     18     (3,1,3)               0.0000       0.0000       0.0000       0.0000       0.0000       0.0000       0.0000       0.0000       0.0000     
     19     (3,1,4)               0.0000       0.0000       0.0000       0.0000       0.0000       0.0000       0.0000       0.0000       0.0000     
     20     (3,1,5)               0.0000       0.0000       0.0000       0.0000       0.0000       0.0000       0.0000       0.0000       0.0000     
     21     (3,1,6)               0.0000       0.0000       0.0000       0.0000       0.0000       0.0000       0.0000       0.0000       0.0000     
     22     (3,1,7)               0.0000       0.0000       0.0000       0.0000       0.0000       0.0000       0.0000       0.0000       0.0000     
     23     (3,1,8)               0.0000       0.0000       0.0000       0.0000       0.0000       0.0000       0.0000       0.0000       0.0000     
     24     (3,1,9)               0.0000       0.0000       0.0000       0.0000       0.0000       0.0000       0.0000       0.0000       0.0000     
 ----------------------------------------------------------------------------------------------------------------------------------------------------


1
  HEAD IN LAYER   1 AT END OF TIME STEP   8 IN STRESS PERIOD    2
  ---------------------------------------------------------------------------

            1           2           3           4           5           6           7           8           9          10
 ........................................................................................................................
   1   -25.00      -25.00      -25.00      -25.00      -25.00      -25.00      -25.00      -25.00      -25.00      -25.00    
1
  HEAD IN LAYER   2 AT END OF TIME STEP   8 IN STRESS PERIOD    2
  ---------------------------------------------------------------------------

            1           2           3           4           5           6           7           8           9          10
 ........................................................................................................................
   1   -25.00      -25.00      -25.00      -25.00      -25.00      -25.00      -25.00      -25.00      -25.00      -25.00    
1
  HEAD IN LAYER   3 AT END OF TIME STEP   8 IN STRESS PERIOD    2
  ---------------------------------------------------------------------------

            1           2           3           4           5           6           7           8           9          10
 ........................................................................................................................
   1   -25.00      -25.00      -25.00      -25.00      -25.00      -25.00      -25.00      -25.00      -25.00      -25.00    

 HEAD WILL BE SAVED ON UNIT 1022 AT END OF TIME STEP    8, STRESS PERIOD    2


  UZF-1 BUDGET FOR ENTIRE MODEL AT END OF TIME STEP    8, STRESS PERIOD   2
  ------------------------------------------------------------------------------

     CUMULATIVE UZF-1      L**3       RATES FOR THIS TIME STEP      L**3/T
     ------------------                 ------------------------

           IN:                                      IN:
           ---                                      ---
                 GWF =           0.0000                   GWF =           0.0000
        INFILTRATION =      288000.0000          INFILTRATION =        8000.0000
             REJ-INF =           0.0000               REJ-INF =           0.0000
                UZET =           0.0000                  UZET =           0.0000
             STORAGE =           0.0000               STORAGE =           0.0000

            TOTAL IN =      288000.0000              TOTAL IN =        8000.0000

          OUT:                                     OUT:
          ----                                     ----
                 GWF =           0.0000                   GWF =           0.0000
        INFILTRATION =           0.0000          INFILTRATION =           0.0000
             REJ-INF =           0.0000               REJ-INF =           0.0000
                UZET =           8.2527                  UZET =           0.4722
             STORAGE =      287991.7473               STORAGE =        7999.5278

           TOTAL OUT =      288000.0000             TOTAL OUT =        8000.0000

            IN - OUT =       1.7987E-06              IN - OUT =      -6.3665E-12

 PERCENT DISCREPANCY =           0.00     PERCENT DISCREPANCY =          -0.00



  VOLUME BUDGET FOR ENTIRE MODEL AT END OF TIME STEP    8, STRESS PERIOD   2
  ---------------------------------------------------------------------------------------------------

     CUMULATIVE VOLUME      L**3       RATES FOR THIS TIME STEP      L**3/T          PACKAGE NAME    
     ------------------                 ------------------------                     ----------------

           IN:                                      IN:
           ---                                      ---
              STO-SS =           0.0000                STO-SS =           0.0000     STORAGE         
              STO-SY =           0.0000                STO-SY =           0.0000     STORAGE         
                 CHD =           0.0000                   CHD =           0.0000     CHD-1           
           UZF-GWRCH =           0.0000             UZF-GWRCH =           0.0000     UZF-1           
             UZF-GWD =           0.0000               UZF-GWD =           0.0000     UZF-1           
            UZF-GWET =           0.0000              UZF-GWET =           0.0000     UZF-1           

            TOTAL IN =           0.0000              TOTAL IN =           0.0000

          OUT:                                     OUT:
          ----                                     ----
              STO-SS =           0.0000                STO-SS =           0.0000     STORAGE         
              STO-SY =           0.0000                STO-SY =           0.0000     STORAGE         
                 CHD =           0.0000                   CHD =           0.0000     CHD-1           
           UZF-GWRCH =           0.0000             UZF-GWRCH =           0.0000     UZF-1           
             UZF-GWD =           0.0000               UZF-GWD =           0.0000     UZF-1           
            UZF-GWET =           0.0000              UZF-GWET =           0.0000     UZF-1           

           TOTAL OUT =           0.0000             TOTAL OUT =           0.0000

            IN - OUT =           0.0000              IN - OUT =           0.0000

 PERCENT DISCREPANCY =           0.00     PERCENT DISCREPANCY =           0.00




         TIME SUMMARY AT END OF TIME STEP    8 IN STRESS PERIOD    2
                    SECONDS     MINUTES      HOURS       DAYS        YEARS
                    -----------------------------------------------------------
   TIME STEP LENGTH 1.72800E+05  2880.0      48.000      2.0000     5.47570E-03
 STRESS PERIOD TIME 1.38240E+06  23040.      384.00      16.000     4.38056E-02
         TOTAL TIME 3.11040E+06  51840.      864.00      36.000     9.85626E-02


end timestep


start timestep kper="2" kstp="9" mode="normal"

 UBDSV1 SAVING     FLOW-JA-FACE ON UNIT   1020 AT TIME STEP      9, STRESS PERIOD      2
 UBDSV06 SAVING     FLOW-JA-FACE IN MODEL GWF_1            PACKAGE UZF-1           CONNECTED TO MODEL GWF_1            PACKAGE UZF-1            ON UNIT   1014 AT TIME STEP      9, STRESS PERIOD      2
 UBDSV06 SAVING              GWF IN MODEL GWF_1            PACKAGE UZF-1           CONNECTED TO MODEL GWF_1            PACKAGE GWF_1            ON UNIT   1014 AT TIME STEP      9, STRESS PERIOD      2
 UBDSV06 SAVING     INFILTRATION IN MODEL GWF_1            PACKAGE UZF-1           CONNECTED TO MODEL GWF_1            PACKAGE UZF-1            ON UNIT   1014 AT TIME STEP      9, STRESS PERIOD      2
 UBDSV06 SAVING          REJ-INF IN MODEL GWF_1            PACKAGE UZF-1           CONNECTED TO MODEL GWF_1            PACKAGE UZF-1            ON UNIT   1014 AT TIME STEP      9, STRESS PERIOD      2
 UBDSV06 SAVING             UZET IN MODEL GWF_1            PACKAGE UZF-1           CONNECTED TO MODEL GWF_1            PACKAGE UZF-1            ON UNIT   1014 AT TIME STEP      9, STRESS PERIOD      2
 UBDSV06 SAVING          STORAGE IN MODEL GWF_1            PACKAGE UZF-1           CONNECTED TO MODEL GWF_1            PACKAGE UZF-1            ON UNIT   1014 AT TIME STEP      9, STRESS PERIOD      2

 CHD PACKAGE (CHD-1) FLOW RATES   PERIOD      2   STEP        9
 -----------------------------------------------
   NUMBER   CELLID                    RATE      
 -----------------------------------------------
     1      (3,1,1)               0.0000000     
     2      (3,1,10)              0.0000000     
 -----------------------------------------------




 UZF-GWRCH PACKAGE (UZF-1) FLOW RATES   PERIOD      2   STEP        9
 ----------------------------------------------------------------------------------------
   NUMBER   CELLID                    RATE       NAME                                    
 ----------------------------------------------------------------------------------------
     1      (1,1,2)               0.0000000      UZF01                                   
     2      (1,1,3)               0.0000000      UZF02                                   
     3      (1,1,4)               0.0000000      UZF03                                   
     4      (1,1,5)               0.0000000      UZF04                                   
     5      (1,1,6)               0.0000000      UZF05                                   
     6      (1,1,7)               0.0000000      UZF06                                   
     7      (1,1,8)               0.0000000      UZF07                                   
     8      (1,1,9)               0.0000000      UZF08                                   
     9      (2,1,2)               0.0000000      UZF08                                   
     10     (2,1,3)               0.0000000      UZF10                                   
     11     (2,1,4)               0.0000000      UZF11                                   
     12     (2,1,5)               0.0000000      UZF12                                   
     13     (2,1,6)               0.0000000      UZF13                                   
     14     (2,1,7)               0.0000000      UZF14                                   
     15     (2,1,8)               0.0000000      UZF15                                   
     16     (2,1,9)               0.0000000      UZF16                                   
     17     (3,1,2)               0.0000000      UZF17                                   
     18     (3,1,3)               0.0000000      UZF18                                   
     19     (3,1,4)               0.0000000      UZF19                                   
     20     (3,1,5)               0.0000000      UZF20                                   
     21     (3,1,6)               0.0000000      UZF21                                   
     22     (3,1,7)               0.0000000      UZF22                                   
     23     (3,1,8)               0.0000000      UZF23                                   
     24     (3,1,9)               0.0000000      UZF24                                   
 ----------------------------------------------------------------------------------------




 UZF-GWD PACKAGE (UZF-1) FLOW RATES   PERIOD      2   STEP        9
 ----------------------------------------------------------------------------------------
   NUMBER   CELLID                    RATE       NAME                                    
 ----------------------------------------------------------------------------------------
     1      (1,1,2)               0.0000000      UZF01                                   
     2      (1,1,3)               0.0000000      UZF02                                   
     3      (1,1,4)               0.0000000      UZF03                                   
     4      (1,1,5)               0.0000000      UZF04                                   
     5      (1,1,6)               0.0000000      UZF05                                   
     6      (1,1,7)               0.0000000      UZF06                                   
     7      (1,1,8)               0.0000000      UZF07                                   
     8      (1,1,9)               0.0000000      UZF08                                   
     9      (2,1,2)               0.0000000      UZF08                                   
     10     (2,1,3)               0.0000000      UZF10                                   
     11     (2,1,4)               0.0000000      UZF11                                   
     12     (2,1,5)               0.0000000      UZF12                                   
     13     (2,1,6)               0.0000000      UZF13                                   
     14     (2,1,7)               0.0000000      UZF14                                   
     15     (2,1,8)               0.0000000      UZF15                                   
     16     (2,1,9)               0.0000000      UZF16                                   
     17     (3,1,2)               0.0000000      UZF17                                   
     18     (3,1,3)               0.0000000      UZF18                                   
     19     (3,1,4)               0.0000000      UZF19                                   
     20     (3,1,5)               0.0000000      UZF20                                   
     21     (3,1,6)               0.0000000      UZF21                                   
     22     (3,1,7)               0.0000000      UZF22                                   
     23     (3,1,8)               0.0000000      UZF23                                   
     24     (3,1,9)               0.0000000      UZF24                                   
 ----------------------------------------------------------------------------------------




 UZF-GWET PACKAGE (UZF-1) FLOW RATES   PERIOD      2   STEP        9
 ----------------------------------------------------------------------------------------
   NUMBER   CELLID                    RATE       NAME                                    
 ----------------------------------------------------------------------------------------
     1      (1,1,2)               0.0000000      UZF01                                   
     2      (1,1,3)               0.0000000      UZF02                                   
     3      (1,1,4)               0.0000000      UZF03                                   
     4      (1,1,5)               0.0000000      UZF04                                   
     5      (1,1,6)               0.0000000      UZF05                                   
     6      (1,1,7)               0.0000000      UZF06                                   
     7      (1,1,8)               0.0000000      UZF07                                   
     8      (1,1,9)               0.0000000      UZF08                                   
     9      (2,1,2)               0.0000000      UZF08                                   
     10     (2,1,3)               0.0000000      UZF10                                   
     11     (2,1,4)               0.0000000      UZF11                                   
     12     (2,1,5)               0.0000000      UZF12                                   
     13     (2,1,6)               0.0000000      UZF13                                   
     14     (2,1,7)               0.0000000      UZF14                                   
     15     (2,1,8)               0.0000000      UZF15                                   
     16     (2,1,9)               0.0000000      UZF16                                   
     17     (3,1,2)               0.0000000      UZF17                                   
     18     (3,1,3)               0.0000000      UZF18                                   
     19     (3,1,4)               0.0000000      UZF19                                   
     20     (3,1,5)               0.0000000      UZF20                                   
     21     (3,1,6)               0.0000000      UZF21                                   
     22     (3,1,7)               0.0000000      UZF22                                   
     23     (3,1,8)               0.0000000      UZF23                                   
     24     (3,1,9)               0.0000000      UZF24                                   
 ----------------------------------------------------------------------------------------




 UZF-1 PACKAGE - SUMMARY OF FLOWS FOR EACH CONTROL VOLUME   PERIOD      2   STEP        9
 ----------------------------------------------------------------------------------------------------------------------------------------------------
                                                                                                                                           PERCENT   
   NUMBER   CELLID                  INFLOW      OUTFLOW        GWF      INFILTRATION   REJ INF        UZET       STORAGE      IN - OUT    DIFFERENCE 
 ----------------------------------------------------------------------------------------------------------------------------------------------------
     1      (1,1,2)               0.0000       0.0000       0.0000       1000.0       0.0000      -6.60554E-02 -999.93      -7.95808E-13 -7.95808E-14
     2      (1,1,3)               0.0000       0.0000       0.0000       1000.0       0.0000      -6.60554E-02 -999.93      -7.95808E-13 -7.95808E-14
     3      (1,1,4)               0.0000       0.0000       0.0000       1000.0       0.0000      -6.60554E-02 -999.93      -7.95808E-13 -7.95808E-14
     4      (1,1,5)               0.0000       0.0000       0.0000       1000.0       0.0000      -6.60554E-02 -999.93      -7.95808E-13 -7.95808E-14
     5      (1,1,6)               0.0000       0.0000       0.0000       1000.0       0.0000      -6.60554E-02 -999.93      -7.95808E-13 -7.95808E-14
     6      (1,1,7)               0.0000       0.0000       0.0000       1000.0       0.0000      -6.60554E-02 -999.93      -7.95808E-13 -7.95808E-14
     7      (1,1,8)               0.0000       0.0000       0.0000       1000.0       0.0000      -6.60554E-02 -999.93      -7.95808E-13 -7.95808E-14
     8      (1,1,9)               0.0000       0.0000       0.0000       1000.0       0.0000      -6.60554E-02 -999.93      -7.95808E-13 -7.95808E-14
     9      (2,1,2)               0.0000       0.0000       0.0000       0.0000       0.0000       0.0000       0.0000       0.0000       0.0000     
     10     (2,1,3)               0.0000       0.0000       0.0000       0.0000       0.0000       0.0000       0.0000       0.0000       0.0000     
     11     (2,1,4)               0.0000       0.0000       0.0000       0.0000       0.0000       0.0000       0.0000       0.0000       0.0000     
     12     (2,1,5)               0.0000       0.0000       0.0000       0.0000       0.0000       0.0000       0.0000       0.0000       0.0000     
     13     (2,1,6)               0.0000       0.0000       0.0000       0.0000       0.0000       0.0000       0.0000       0.0000       0.0000     
     14     (2,1,7)               0.0000       0.0000       0.0000       0.0000       0.0000       0.0000       0.0000       0.0000       0.0000     
     15     (2,1,8)               0.0000       0.0000       0.0000       0.0000       0.0000       0.0000       0.0000       0.0000       0.0000     
     16     (2,1,9)               0.0000       0.0000       0.0000       0.0000       0.0000       0.0000       0.0000       0.0000       0.0000     
     17     (3,1,2)               0.0000       0.0000       0.0000       0.0000       0.0000       0.0000       0.0000       0.0000       0.0000     
     18     (3,1,3)               0.0000       0.0000       0.0000       0.0000       0.0000       0.0000       0.0000       0.0000       0.0000     
     19     (3,1,4)               0.0000       0.0000       0.0000       0.0000       0.0000       0.0000       0.0000       0.0000       0.0000     
     20     (3,1,5)               0.0000       0.0000       0.0000       0.0000       0.0000       0.0000       0.0000       0.0000       0.0000     
     21     (3,1,6)               0.0000       0.0000       0.0000       0.0000       0.0000       0.0000       0.0000       0.0000       0.0000     
     22     (3,1,7)               0.0000       0.0000       0.0000       0.0000       0.0000       0.0000       0.0000       0.0000       0.0000     
     23     (3,1,8)               0.0000       0.0000       0.0000       0.0000       0.0000       0.0000       0.0000       0.0000       0.0000     
     24     (3,1,9)               0.0000       0.0000       0.0000       0.0000       0.0000       0.0000       0.0000       0.0000       0.0000     
 ----------------------------------------------------------------------------------------------------------------------------------------------------


1
  HEAD IN LAYER   1 AT END OF TIME STEP   9 IN STRESS PERIOD    2
  ---------------------------------------------------------------------------

            1           2           3           4           5           6           7           8           9          10
 ........................................................................................................................
   1   -25.00      -25.00      -25.00      -25.00      -25.00      -25.00      -25.00      -25.00      -25.00      -25.00    
1
  HEAD IN LAYER   2 AT END OF TIME STEP   9 IN STRESS PERIOD    2
  ---------------------------------------------------------------------------

            1           2           3           4           5           6           7           8           9          10
 ........................................................................................................................
   1   -25.00      -25.00      -25.00      -25.00      -25.00      -25.00      -25.00      -25.00      -25.00      -25.00    
1
  HEAD IN LAYER   3 AT END OF TIME STEP   9 IN STRESS PERIOD    2
  ---------------------------------------------------------------------------

            1           2           3           4           5           6           7           8           9          10
 ........................................................................................................................
   1   -25.00      -25.00      -25.00      -25.00      -25.00      -25.00      -25.00      -25.00      -25.00      -25.00    

 HEAD WILL BE SAVED ON UNIT 1022 AT END OF TIME STEP    9, STRESS PERIOD    2


  UZF-1 BUDGET FOR ENTIRE MODEL AT END OF TIME STEP    9, STRESS PERIOD   2
  ------------------------------------------------------------------------------

     CUMULATIVE UZF-1      L**3       RATES FOR THIS TIME STEP      L**3/T
     ------------------                 ------------------------

           IN:                                      IN:
           ---                                      ---
                 GWF =           0.0000                   GWF =           0.0000
        INFILTRATION =      304000.0000          INFILTRATION =        8000.0000
             REJ-INF =           0.0000               REJ-INF =           0.0000
                UZET =           0.0000                  UZET =           0.0000
             STORAGE =           0.0000               STORAGE =           0.0000

            TOTAL IN =      304000.0000              TOTAL IN =        8000.0000

          OUT:                                     OUT:
          ----                                     ----
                 GWF =           0.0000                   GWF =           0.0000
        INFILTRATION =           0.0000          INFILTRATION =           0.0000
             REJ-INF =           0.0000               REJ-INF =           0.0000
                UZET =           9.3096                  UZET =           0.5284
             STORAGE =      303990.6904               STORAGE =        7999.4716

           TOTAL OUT =      304000.0000             TOTAL OUT =        8000.0000

            IN - OUT =       1.7986E-06              IN - OUT =      -7.2760E-12

 PERCENT DISCREPANCY =           0.00     PERCENT DISCREPANCY =          -0.00



  VOLUME BUDGET FOR ENTIRE MODEL AT END OF TIME STEP    9, STRESS PERIOD   2
  ---------------------------------------------------------------------------------------------------

     CUMULATIVE VOLUME      L**3       RATES FOR THIS TIME STEP      L**3/T          PACKAGE NAME    
     ------------------                 ------------------------                     ----------------

           IN:                                      IN:
           ---                                      ---
              STO-SS =           0.0000                STO-SS =           0.0000     STORAGE         
              STO-SY =           0.0000                STO-SY =           0.0000     STORAGE         
                 CHD =           0.0000                   CHD =           0.0000     CHD-1           
           UZF-GWRCH =           0.0000             UZF-GWRCH =           0.0000     UZF-1           
             UZF-GWD =           0.0000               UZF-GWD =           0.0000     UZF-1           
            UZF-GWET =           0.0000              UZF-GWET =           0.0000     UZF-1           

            TOTAL IN =           0.0000              TOTAL IN =           0.0000

          OUT:                                     OUT:
          ----                                     ----
              STO-SS =           0.0000                STO-SS =           0.0000     STORAGE         
              STO-SY =           0.0000                STO-SY =           0.0000     STORAGE         
                 CHD =           0.0000                   CHD =           0.0000     CHD-1           
           UZF-GWRCH =           0.0000             UZF-GWRCH =           0.0000     UZF-1           
             UZF-GWD =           0.0000               UZF-GWD =           0.0000     UZF-1           
            UZF-GWET =           0.0000              UZF-GWET =           0.0000     UZF-1           

           TOTAL OUT =           0.0000             TOTAL OUT =           0.0000

            IN - OUT =           0.0000              IN - OUT =           0.0000

 PERCENT DISCREPANCY =           0.00     PERCENT DISCREPANCY =           0.00




         TIME SUMMARY AT END OF TIME STEP    9 IN STRESS PERIOD    2
                    SECONDS     MINUTES      HOURS       DAYS        YEARS
                    -----------------------------------------------------------
   TIME STEP LENGTH 1.72800E+05  2880.0      48.000      2.0000     5.47570E-03
 STRESS PERIOD TIME 1.55520E+06  25920.      432.00      18.000     4.92813E-02
         TOTAL TIME 3.28320E+06  54720.      912.00      38.000     0.10404    


end timestep


start timestep kper="2" kstp="10" mode="normal"

 UBDSV1 SAVING     FLOW-JA-FACE ON UNIT   1020 AT TIME STEP     10, STRESS PERIOD      2
 UBDSV06 SAVING     FLOW-JA-FACE IN MODEL GWF_1            PACKAGE UZF-1           CONNECTED TO MODEL GWF_1            PACKAGE UZF-1            ON UNIT   1014 AT TIME STEP     10, STRESS PERIOD      2
 UBDSV06 SAVING              GWF IN MODEL GWF_1            PACKAGE UZF-1           CONNECTED TO MODEL GWF_1            PACKAGE GWF_1            ON UNIT   1014 AT TIME STEP     10, STRESS PERIOD      2
 UBDSV06 SAVING     INFILTRATION IN MODEL GWF_1            PACKAGE UZF-1           CONNECTED TO MODEL GWF_1            PACKAGE UZF-1            ON UNIT   1014 AT TIME STEP     10, STRESS PERIOD      2
 UBDSV06 SAVING          REJ-INF IN MODEL GWF_1            PACKAGE UZF-1           CONNECTED TO MODEL GWF_1            PACKAGE UZF-1            ON UNIT   1014 AT TIME STEP     10, STRESS PERIOD      2
 UBDSV06 SAVING             UZET IN MODEL GWF_1            PACKAGE UZF-1           CONNECTED TO MODEL GWF_1            PACKAGE UZF-1            ON UNIT   1014 AT TIME STEP     10, STRESS PERIOD      2
 UBDSV06 SAVING          STORAGE IN MODEL GWF_1            PACKAGE UZF-1           CONNECTED TO MODEL GWF_1            PACKAGE UZF-1            ON UNIT   1014 AT TIME STEP     10, STRESS PERIOD      2

 CHD PACKAGE (CHD-1) FLOW RATES   PERIOD      2   STEP       10
 -----------------------------------------------
   NUMBER   CELLID                    RATE      
 -----------------------------------------------
     1      (3,1,1)               0.0000000     
     2      (3,1,10)              0.0000000     
 -----------------------------------------------




 UZF-GWRCH PACKAGE (UZF-1) FLOW RATES   PERIOD      2   STEP       10
 ----------------------------------------------------------------------------------------
   NUMBER   CELLID                    RATE       NAME                                    
 ----------------------------------------------------------------------------------------
     1      (1,1,2)               0.0000000      UZF01                                   
     2      (1,1,3)               0.0000000      UZF02                                   
     3      (1,1,4)               0.0000000      UZF03                                   
     4      (1,1,5)               0.0000000      UZF04                                   
     5      (1,1,6)               0.0000000      UZF05                                   
     6      (1,1,7)               0.0000000      UZF06                                   
     7      (1,1,8)               0.0000000      UZF07                                   
     8      (1,1,9)               0.0000000      UZF08                                   
     9      (2,1,2)               0.0000000      UZF08                                   
     10     (2,1,3)               0.0000000      UZF10                                   
     11     (2,1,4)               0.0000000      UZF11                                   
     12     (2,1,5)               0.0000000      UZF12                                   
     13     (2,1,6)               0.0000000      UZF13                                   
     14     (2,1,7)               0.0000000      UZF14                                   
     15     (2,1,8)               0.0000000      UZF15                                   
     16     (2,1,9)               0.0000000      UZF16                                   
     17     (3,1,2)               0.0000000      UZF17                                   
     18     (3,1,3)               0.0000000      UZF18                                   
     19     (3,1,4)               0.0000000      UZF19                                   
     20     (3,1,5)               0.0000000      UZF20                                   
     21     (3,1,6)               0.0000000      UZF21                                   
     22     (3,1,7)               0.0000000      UZF22                                   
     23     (3,1,8)               0.0000000      UZF23                                   
     24     (3,1,9)               0.0000000      UZF24                                   
 ----------------------------------------------------------------------------------------




 UZF-GWD PACKAGE (UZF-1) FLOW RATES   PERIOD      2   STEP       10
 ----------------------------------------------------------------------------------------
   NUMBER   CELLID                    RATE       NAME                                    
 ----------------------------------------------------------------------------------------
     1      (1,1,2)               0.0000000      UZF01                                   
     2      (1,1,3)               0.0000000      UZF02                                   
     3      (1,1,4)               0.0000000      UZF03                                   
     4      (1,1,5)               0.0000000      UZF04                                   
     5      (1,1,6)               0.0000000      UZF05                                   
     6      (1,1,7)               0.0000000      UZF06                                   
     7      (1,1,8)               0.0000000      UZF07                                   
     8      (1,1,9)               0.0000000      UZF08                                   
     9      (2,1,2)               0.0000000      UZF08                                   
     10     (2,1,3)               0.0000000      UZF10                                   
     11     (2,1,4)               0.0000000      UZF11                                   
     12     (2,1,5)               0.0000000      UZF12                                   
     13     (2,1,6)               0.0000000      UZF13                                   
     14     (2,1,7)               0.0000000      UZF14                                   
     15     (2,1,8)               0.0000000      UZF15                                   
     16     (2,1,9)               0.0000000      UZF16                                   
     17     (3,1,2)               0.0000000      UZF17                                   
     18     (3,1,3)               0.0000000      UZF18                                   
     19     (3,1,4)               0.0000000      UZF19                                   
     20     (3,1,5)               0.0000000      UZF20                                   
     21     (3,1,6)               0.0000000      UZF21                                   
     22     (3,1,7)               0.0000000      UZF22                                   
     23     (3,1,8)               0.0000000      UZF23                                   
     24     (3,1,9)               0.0000000      UZF24                                   
 ----------------------------------------------------------------------------------------




 UZF-GWET PACKAGE (UZF-1) FLOW RATES   PERIOD      2   STEP       10
 ----------------------------------------------------------------------------------------
   NUMBER   CELLID                    RATE       NAME                                    
 ----------------------------------------------------------------------------------------
     1      (1,1,2)               0.0000000      UZF01                                   
     2      (1,1,3)               0.0000000      UZF02                                   
     3      (1,1,4)               0.0000000      UZF03                                   
     4      (1,1,5)               0.0000000      UZF04                                   
     5      (1,1,6)               0.0000000      UZF05                                   
     6      (1,1,7)               0.0000000      UZF06                                   
     7      (1,1,8)               0.0000000      UZF07                                   
     8      (1,1,9)               0.0000000      UZF08                                   
     9      (2,1,2)               0.0000000      UZF08                                   
     10     (2,1,3)               0.0000000      UZF10                                   
     11     (2,1,4)               0.0000000      UZF11                                   
     12     (2,1,5)               0.0000000      UZF12                                   
     13     (2,1,6)               0.0000000      UZF13                                   
     14     (2,1,7)               0.0000000      UZF14                                   
     15     (2,1,8)               0.0000000      UZF15                                   
     16     (2,1,9)               0.0000000      UZF16                                   
     17     (3,1,2)               0.0000000      UZF17                                   
     18     (3,1,3)               0.0000000      UZF18                                   
     19     (3,1,4)               0.0000000      UZF19                                   
     20     (3,1,5)               0.0000000      UZF20                                   
     21     (3,1,6)               0.0000000      UZF21                                   
     22     (3,1,7)               0.0000000      UZF22                                   
     23     (3,1,8)               0.0000000      UZF23                                   
     24     (3,1,9)               0.0000000      UZF24                                   
 ----------------------------------------------------------------------------------------




 UZF-1 PACKAGE - SUMMARY OF FLOWS FOR EACH CONTROL VOLUME   PERIOD      2   STEP       10
 ----------------------------------------------------------------------------------------------------------------------------------------------------
                                                                                                                                           PERCENT   
   NUMBER   CELLID                  INFLOW      OUTFLOW        GWF      INFILTRATION   REJ INF        UZET       STORAGE      IN - OUT    DIFFERENCE 
 ----------------------------------------------------------------------------------------------------------------------------------------------------
     1      (1,1,2)               0.0000       0.0000       0.0000       1000.0       0.0000      -2.81086E-02 -999.97       7.38964E-12  7.38964E-13
     2      (1,1,3)               0.0000       0.0000       0.0000       1000.0       0.0000      -2.81086E-02 -999.97       7.38964E-12  7.38964E-13
     3      (1,1,4)               0.0000       0.0000       0.0000       1000.0       0.0000      -2.81086E-02 -999.97       7.38964E-12  7.38964E-13
     4      (1,1,5)               0.0000       0.0000       0.0000       1000.0       0.0000      -2.81086E-02 -999.97       7.38964E-12  7.38964E-13
     5      (1,1,6)               0.0000       0.0000       0.0000       1000.0       0.0000      -2.81086E-02 -999.97       7.38964E-12  7.38964E-13
     6      (1,1,7)               0.0000       0.0000       0.0000       1000.0       0.0000      -2.81086E-02 -999.97       7.38964E-12  7.38964E-13
     7      (1,1,8)               0.0000       0.0000       0.0000       1000.0       0.0000      -2.81086E-02 -999.97       7.38964E-12  7.38964E-13
     8      (1,1,9)               0.0000       0.0000       0.0000       1000.0       0.0000      -2.81086E-02 -999.97       7.38964E-12  7.38964E-13
     9      (2,1,2)               0.0000       0.0000       0.0000       0.0000       0.0000       0.0000       0.0000       0.0000       0.0000     
     10     (2,1,3)               0.0000       0.0000       0.0000       0.0000       0.0000       0.0000       0.0000       0.0000       0.0000     
     11     (2,1,4)               0.0000       0.0000       0.0000       0.0000       0.0000       0.0000       0.0000       0.0000       0.0000     
     12     (2,1,5)               0.0000       0.0000       0.0000       0.0000       0.0000       0.0000       0.0000       0.0000       0.0000     
     13     (2,1,6)               0.0000       0.0000       0.0000       0.0000       0.0000       0.0000       0.0000       0.0000       0.0000     
     14     (2,1,7)               0.0000       0.0000       0.0000       0.0000       0.0000       0.0000       0.0000       0.0000       0.0000     
     15     (2,1,8)               0.0000       0.0000       0.0000       0.0000       0.0000       0.0000       0.0000       0.0000       0.0000     
     16     (2,1,9)               0.0000       0.0000       0.0000       0.0000       0.0000       0.0000       0.0000       0.0000       0.0000     
     17     (3,1,2)               0.0000       0.0000       0.0000       0.0000       0.0000       0.0000       0.0000       0.0000       0.0000     
     18     (3,1,3)               0.0000       0.0000       0.0000       0.0000       0.0000       0.0000       0.0000       0.0000       0.0000     
     19     (3,1,4)               0.0000       0.0000       0.0000       0.0000       0.0000       0.0000       0.0000       0.0000       0.0000     
     20     (3,1,5)               0.0000       0.0000       0.0000       0.0000       0.0000       0.0000       0.0000       0.0000       0.0000     
     21     (3,1,6)               0.0000       0.0000       0.0000       0.0000       0.0000       0.0000       0.0000       0.0000       0.0000     
     22     (3,1,7)               0.0000       0.0000       0.0000       0.0000       0.0000       0.0000       0.0000       0.0000       0.0000     
     23     (3,1,8)               0.0000       0.0000       0.0000       0.0000       0.0000       0.0000       0.0000       0.0000       0.0000     
     24     (3,1,9)               0.0000       0.0000       0.0000       0.0000       0.0000       0.0000       0.0000       0.0000       0.0000     
 ----------------------------------------------------------------------------------------------------------------------------------------------------


1
  HEAD IN LAYER   1 AT END OF TIME STEP  10 IN STRESS PERIOD    2
  ---------------------------------------------------------------------------

            1           2           3           4           5           6           7           8           9          10
 ........................................................................................................................
   1   -25.00      -25.00      -25.00      -25.00      -25.00      -25.00      -25.00      -25.00      -25.00      -25.00    
1
  HEAD IN LAYER   2 AT END OF TIME STEP  10 IN STRESS PERIOD    2
  ---------------------------------------------------------------------------

            1           2           3           4           5           6           7           8           9          10
 ........................................................................................................................
   1   -25.00      -25.00      -25.00      -25.00      -25.00      -25.00      -25.00      -25.00      -25.00      -25.00    
1
  HEAD IN LAYER   3 AT END OF TIME STEP  10 IN STRESS PERIOD    2
  ---------------------------------------------------------------------------

            1           2           3           4           5           6           7           8           9          10
 ........................................................................................................................
   1   -25.00      -25.00      -25.00      -25.00      -25.00      -25.00      -25.00      -25.00      -25.00      -25.00    

 HEAD WILL BE SAVED ON UNIT 1022 AT END OF TIME STEP   10, STRESS PERIOD    2


  UZF-1 BUDGET FOR ENTIRE MODEL AT END OF TIME STEP   10, STRESS PERIOD   2
  ------------------------------------------------------------------------------

     CUMULATIVE UZF-1      L**3       RATES FOR THIS TIME STEP      L**3/T
     ------------------                 ------------------------

           IN:                                      IN:
           ---                                      ---
                 GWF =           0.0000                   GWF =           0.0000
        INFILTRATION =      320000.0000          INFILTRATION =        8000.0000
             REJ-INF =           0.0000               REJ-INF =           0.0000
                UZET =           0.0000                  UZET =           0.0000
             STORAGE =           0.0000               STORAGE =           0.0000

            TOTAL IN =      320000.0000              TOTAL IN =        8000.0000

          OUT:                                     OUT:
          ----                                     ----
                 GWF =           0.0000                   GWF =           0.0000
        INFILTRATION =           0.0000          INFILTRATION =           0.0000
             REJ-INF =           0.0000               REJ-INF =           0.0000
                UZET =           9.7594                  UZET =           0.2249
             STORAGE =      319990.2406               STORAGE =        7999.7751

           TOTAL OUT =      320000.0000             TOTAL OUT =        8000.0000

            IN - OUT =       1.7988E-06              IN - OUT =       5.8208E-11

 PERCENT DISCREPANCY =           0.00     PERCENT DISCREPANCY =           0.00



  VOLUME BUDGET FOR ENTIRE MODEL AT END OF TIME STEP   10, STRESS PERIOD   2
  ---------------------------------------------------------------------------------------------------

     CUMULATIVE VOLUME      L**3       RATES FOR THIS TIME STEP      L**3/T          PACKAGE NAME    
     ------------------                 ------------------------                     ----------------

           IN:                                      IN:
           ---                                      ---
              STO-SS =           0.0000                STO-SS =           0.0000     STORAGE         
              STO-SY =           0.0000                STO-SY =           0.0000     STORAGE         
                 CHD =           0.0000                   CHD =           0.0000     CHD-1           
           UZF-GWRCH =           0.0000             UZF-GWRCH =           0.0000     UZF-1           
             UZF-GWD =           0.0000               UZF-GWD =           0.0000     UZF-1           
            UZF-GWET =           0.0000              UZF-GWET =           0.0000     UZF-1           

            TOTAL IN =           0.0000              TOTAL IN =           0.0000

          OUT:                                     OUT:
          ----                                     ----
              STO-SS =           0.0000                STO-SS =           0.0000     STORAGE         
              STO-SY =           0.0000                STO-SY =           0.0000     STORAGE         
                 CHD =           0.0000                   CHD =           0.0000     CHD-1           
           UZF-GWRCH =           0.0000             UZF-GWRCH =           0.0000     UZF-1           
             UZF-GWD =           0.0000               UZF-GWD =           0.0000     UZF-1           
            UZF-GWET =           0.0000              UZF-GWET =           0.0000     UZF-1           

           TOTAL OUT =           0.0000             TOTAL OUT =           0.0000

            IN - OUT =           0.0000              IN - OUT =           0.0000

 PERCENT DISCREPANCY =           0.00     PERCENT DISCREPANCY =           0.00




         TIME SUMMARY AT END OF TIME STEP   10 IN STRESS PERIOD    2
                    SECONDS     MINUTES      HOURS       DAYS        YEARS
                    -----------------------------------------------------------
   TIME STEP LENGTH 1.72800E+05  2880.0      48.000      2.0000     5.47570E-03
 STRESS PERIOD TIME 1.72800E+06  28800.      480.00      20.000     5.47570E-02
         TOTAL TIME 3.45600E+06  57600.      960.00      40.000     0.10951    


end timestep


start timestep kper="3" kstp="1" mode="normal"


 OUTPUT CONTROL FOR STRESS PERIOD 3 IS REPEATED USING SETTINGS FROM A PREVIOUS STRESS PERIOD.


 STRESS PERIOD 3 IS TRANSIENT


 REUSING CHDS FROM LAST STRESS PERIOD

 UZF CELLS PACKAGE (UZF-1) DATA FOR PERIOD      3
 ----------------------------------------------------------------------------------------------------------------------------
   NUMBER   CELLID                   FINF         PET         EXTDEP       EXTWC     BOUNDNAME                               
 ----------------------------------------------------------------------------------------------------------------------------
     1      (1,1,2)               1.00000E-02  1.00000E-06  15.000       7.00000E-02 UZF01                                   
     2      (1,1,3)               1.00000E-02  1.00000E-06  15.000       7.00000E-02 UZF02                                   
     3      (1,1,4)               1.00000E-02  1.00000E-06  15.000       7.00000E-02 UZF03                                   
     4      (1,1,5)               1.00000E-02  1.00000E-06  15.000       7.00000E-02 UZF04                                   
     5      (1,1,6)               1.00000E-02  1.00000E-06  15.000       7.00000E-02 UZF05                                   
     6      (1,1,7)               1.00000E-02  1.00000E-06  15.000       7.00000E-02 UZF06                                   
     7      (1,1,8)               1.00000E-02  1.00000E-06  15.000       7.00000E-02 UZF07                                   
     8      (1,1,9)               1.00000E-02  1.00000E-06  15.000       7.00000E-02 UZF08                                   
     9      (2,1,2)               0.0000       1.00000E-06  15.000       7.00000E-02 UZF08                                   
     10     (2,1,3)               0.0000       1.00000E-06  15.000       7.00000E-02 UZF10                                   
     11     (2,1,4)               0.0000       1.00000E-06  15.000       7.00000E-02 UZF11                                   
     12     (2,1,5)               0.0000       1.00000E-06  15.000       7.00000E-02 UZF12                                   
     13     (2,1,6)               0.0000       1.00000E-06  15.000       7.00000E-02 UZF13                                   
     14     (2,1,7)               0.0000       1.00000E-06  15.000       7.00000E-02 UZF14                                   
     15     (2,1,8)               0.0000       1.00000E-06  15.000       7.00000E-02 UZF15                                   
     16     (2,1,9)               0.0000       1.00000E-06  15.000       7.00000E-02 UZF16                                   
 ----------------------------------------------------------------------------------------------------------------------------


 UBDSV1 SAVING     FLOW-JA-FACE ON UNIT   1020 AT TIME STEP      1, STRESS PERIOD      3
 UBDSV06 SAVING     FLOW-JA-FACE IN MODEL GWF_1            PACKAGE UZF-1           CONNECTED TO MODEL GWF_1            PACKAGE UZF-1            ON UNIT   1014 AT TIME STEP      1, STRESS PERIOD      3
 UBDSV06 SAVING              GWF IN MODEL GWF_1            PACKAGE UZF-1           CONNECTED TO MODEL GWF_1            PACKAGE GWF_1            ON UNIT   1014 AT TIME STEP      1, STRESS PERIOD      3
 UBDSV06 SAVING     INFILTRATION IN MODEL GWF_1            PACKAGE UZF-1           CONNECTED TO MODEL GWF_1            PACKAGE UZF-1            ON UNIT   1014 AT TIME STEP      1, STRESS PERIOD      3
 UBDSV06 SAVING          REJ-INF IN MODEL GWF_1            PACKAGE UZF-1           CONNECTED TO MODEL GWF_1            PACKAGE UZF-1            ON UNIT   1014 AT TIME STEP      1, STRESS PERIOD      3
 UBDSV06 SAVING             UZET IN MODEL GWF_1            PACKAGE UZF-1           CONNECTED TO MODEL GWF_1            PACKAGE UZF-1            ON UNIT   1014 AT TIME STEP      1, STRESS PERIOD      3
 UBDSV06 SAVING          STORAGE IN MODEL GWF_1            PACKAGE UZF-1           CONNECTED TO MODEL GWF_1            PACKAGE UZF-1            ON UNIT   1014 AT TIME STEP      1, STRESS PERIOD      3

 CHD PACKAGE (CHD-1) FLOW RATES   PERIOD      3   STEP        1
 -----------------------------------------------
   NUMBER   CELLID                    RATE      
 -----------------------------------------------
     1      (3,1,1)               0.0000000     
     2      (3,1,10)              0.0000000     
 -----------------------------------------------




 UZF-GWRCH PACKAGE (UZF-1) FLOW RATES   PERIOD      3   STEP        1
 ----------------------------------------------------------------------------------------
   NUMBER   CELLID                    RATE       NAME                                    
 ----------------------------------------------------------------------------------------
     1      (1,1,2)               0.0000000      UZF01                                   
     2      (1,1,3)               0.0000000      UZF02                                   
     3      (1,1,4)               0.0000000      UZF03                                   
     4      (1,1,5)               0.0000000      UZF04                                   
     5      (1,1,6)               0.0000000      UZF05                                   
     6      (1,1,7)               0.0000000      UZF06                                   
     7      (1,1,8)               0.0000000      UZF07                                   
     8      (1,1,9)               0.0000000      UZF08                                   
     9      (2,1,2)               0.0000000      UZF08                                   
     10     (2,1,3)               0.0000000      UZF10                                   
     11     (2,1,4)               0.0000000      UZF11                                   
     12     (2,1,5)               0.0000000      UZF12                                   
     13     (2,1,6)               0.0000000      UZF13                                   
     14     (2,1,7)               0.0000000      UZF14                                   
     15     (2,1,8)               0.0000000      UZF15                                   
     16     (2,1,9)               0.0000000      UZF16                                   
     17     (3,1,2)               0.0000000      UZF17                                   
     18     (3,1,3)               0.0000000      UZF18                                   
     19     (3,1,4)               0.0000000      UZF19                                   
     20     (3,1,5)               0.0000000      UZF20                                   
     21     (3,1,6)               0.0000000      UZF21                                   
     22     (3,1,7)               0.0000000      UZF22                                   
     23     (3,1,8)               0.0000000      UZF23                                   
     24     (3,1,9)               0.0000000      UZF24                                   
 ----------------------------------------------------------------------------------------




 UZF-GWD PACKAGE (UZF-1) FLOW RATES   PERIOD      3   STEP        1
 ----------------------------------------------------------------------------------------
   NUMBER   CELLID                    RATE       NAME                                    
 ----------------------------------------------------------------------------------------
     1      (1,1,2)               0.0000000      UZF01                                   
     2      (1,1,3)               0.0000000      UZF02                                   
     3      (1,1,4)               0.0000000      UZF03                                   
     4      (1,1,5)               0.0000000      UZF04                                   
     5      (1,1,6)               0.0000000      UZF05                                   
     6      (1,1,7)               0.0000000      UZF06                                   
     7      (1,1,8)               0.0000000      UZF07                                   
     8      (1,1,9)               0.0000000      UZF08                                   
     9      (2,1,2)               0.0000000      UZF08                                   
     10     (2,1,3)               0.0000000      UZF10                                   
     11     (2,1,4)               0.0000000      UZF11                                   
     12     (2,1,5)               0.0000000      UZF12                                   
     13     (2,1,6)               0.0000000      UZF13                                   
     14     (2,1,7)               0.0000000      UZF14                                   
     15     (2,1,8)               0.0000000      UZF15                                   
     16     (2,1,9)               0.0000000      UZF16                                   
     17     (3,1,2)               0.0000000      UZF17                                   
     18     (3,1,3)               0.0000000      UZF18                                   
     19     (3,1,4)               0.0000000      UZF19                                   
     20     (3,1,5)               0.0000000      UZF20                                   
     21     (3,1,6)               0.0000000      UZF21                                   
     22     (3,1,7)               0.0000000      UZF22                                   
     23     (3,1,8)               0.0000000      UZF23                                   
     24     (3,1,9)               0.0000000      UZF24                                   
 ----------------------------------------------------------------------------------------




 UZF-GWET PACKAGE (UZF-1) FLOW RATES   PERIOD      3   STEP        1
 ----------------------------------------------------------------------------------------
   NUMBER   CELLID                    RATE       NAME                                    
 ----------------------------------------------------------------------------------------
     1      (1,1,2)               0.0000000      UZF01                                   
     2      (1,1,3)               0.0000000      UZF02                                   
     3      (1,1,4)               0.0000000      UZF03                                   
     4      (1,1,5)               0.0000000      UZF04                                   
     5      (1,1,6)               0.0000000      UZF05                                   
     6      (1,1,7)               0.0000000      UZF06                                   
     7      (1,1,8)               0.0000000      UZF07                                   
     8      (1,1,9)               0.0000000      UZF08                                   
     9      (2,1,2)               0.0000000      UZF08                                   
     10     (2,1,3)               0.0000000      UZF10                                   
     11     (2,1,4)               0.0000000      UZF11                                   
     12     (2,1,5)               0.0000000      UZF12                                   
     13     (2,1,6)               0.0000000      UZF13                                   
     14     (2,1,7)               0.0000000      UZF14                                   
     15     (2,1,8)               0.0000000      UZF15                                   
     16     (2,1,9)               0.0000000      UZF16                                   
     17     (3,1,2)               0.0000000      UZF17                                   
     18     (3,1,3)               0.0000000      UZF18                                   
     19     (3,1,4)               0.0000000      UZF19                                   
     20     (3,1,5)               0.0000000      UZF20                                   
     21     (3,1,6)               0.0000000      UZF21                                   
     22     (3,1,7)               0.0000000      UZF22                                   
     23     (3,1,8)               0.0000000      UZF23                                   
     24     (3,1,9)               0.0000000      UZF24                                   
 ----------------------------------------------------------------------------------------




 UZF-1 PACKAGE - SUMMARY OF FLOWS FOR EACH CONTROL VOLUME   PERIOD      3   STEP        1
 ----------------------------------------------------------------------------------------------------------------------------------------------------
                                                                                                                                           PERCENT   
   NUMBER   CELLID                  INFLOW      OUTFLOW        GWF      INFILTRATION   REJ INF        UZET       STORAGE      IN - OUT    DIFFERENCE 
 ----------------------------------------------------------------------------------------------------------------------------------------------------
     1      (1,1,2)               0.0000       0.0000       0.0000       1000.0       0.0000      -3.51358E-02 -999.96       1.93268E-12  1.93268E-13
     2      (1,1,3)               0.0000       0.0000       0.0000       1000.0       0.0000      -3.51358E-02 -999.96       1.93268E-12  1.93268E-13
     3      (1,1,4)               0.0000       0.0000       0.0000       1000.0       0.0000      -3.51358E-02 -999.96       1.93268E-12  1.93268E-13
     4      (1,1,5)               0.0000       0.0000       0.0000       1000.0       0.0000      -3.51358E-02 -999.96       1.93268E-12  1.93268E-13
     5      (1,1,6)               0.0000       0.0000       0.0000       1000.0       0.0000      -3.51358E-02 -999.96       1.93268E-12  1.93268E-13
     6      (1,1,7)               0.0000       0.0000       0.0000       1000.0       0.0000      -3.51358E-02 -999.96       1.93268E-12  1.93268E-13
     7      (1,1,8)               0.0000       0.0000       0.0000       1000.0       0.0000      -3.51358E-02 -999.96       1.93268E-12  1.93268E-13
     8      (1,1,9)               0.0000       0.0000       0.0000       1000.0       0.0000      -3.51358E-02 -999.96       1.93268E-12  1.93268E-13
     9      (2,1,2)               0.0000       0.0000       0.0000       0.0000       0.0000       0.0000       0.0000       0.0000       0.0000     
     10     (2,1,3)               0.0000       0.0000       0.0000       0.0000       0.0000       0.0000       0.0000       0.0000       0.0000     
     11     (2,1,4)               0.0000       0.0000       0.0000       0.0000       0.0000       0.0000       0.0000       0.0000       0.0000     
     12     (2,1,5)               0.0000       0.0000       0.0000       0.0000       0.0000       0.0000       0.0000       0.0000       0.0000     
     13     (2,1,6)               0.0000       0.0000       0.0000       0.0000       0.0000       0.0000       0.0000       0.0000       0.0000     
     14     (2,1,7)               0.0000       0.0000       0.0000       0.0000       0.0000       0.0000       0.0000       0.0000       0.0000     
     15     (2,1,8)               0.0000       0.0000       0.0000       0.0000       0.0000       0.0000       0.0000       0.0000       0.0000     
     16     (2,1,9)               0.0000       0.0000       0.0000       0.0000       0.0000       0.0000       0.0000       0.0000       0.0000     
     17     (3,1,2)               0.0000       0.0000       0.0000       0.0000       0.0000       0.0000       0.0000       0.0000       0.0000     
     18     (3,1,3)               0.0000       0.0000       0.0000       0.0000       0.0000       0.0000       0.0000       0.0000       0.0000     
     19     (3,1,4)               0.0000       0.0000       0.0000       0.0000       0.0000       0.0000       0.0000       0.0000       0.0000     
     20     (3,1,5)               0.0000       0.0000       0.0000       0.0000       0.0000       0.0000       0.0000       0.0000       0.0000     
     21     (3,1,6)               0.0000       0.0000       0.0000       0.0000       0.0000       0.0000       0.0000       0.0000       0.0000     
     22     (3,1,7)               0.0000       0.0000       0.0000       0.0000       0.0000       0.0000       0.0000       0.0000       0.0000     
     23     (3,1,8)               0.0000       0.0000       0.0000       0.0000       0.0000       0.0000       0.0000       0.0000       0.0000     
     24     (3,1,9)               0.0000       0.0000       0.0000       0.0000       0.0000       0.0000       0.0000       0.0000       0.0000     
 ----------------------------------------------------------------------------------------------------------------------------------------------------


1
  HEAD IN LAYER   1 AT END OF TIME STEP   1 IN STRESS PERIOD    3
  ---------------------------------------------------------------------------

            1           2           3           4           5           6           7           8           9          10
 ........................................................................................................................
   1   -25.00      -25.00      -25.00      -25.00      -25.00      -25.00      -25.00      -25.00      -25.00      -25.00    
1
  HEAD IN LAYER   2 AT END OF TIME STEP   1 IN STRESS PERIOD    3
  ---------------------------------------------------------------------------

            1           2           3           4           5           6           7           8           9          10
 ........................................................................................................................
   1   -25.00      -25.00      -25.00      -25.00      -25.00      -25.00      -25.00      -25.00      -25.00      -25.00    
1
  HEAD IN LAYER   3 AT END OF TIME STEP   1 IN STRESS PERIOD    3
  ---------------------------------------------------------------------------

            1           2           3           4           5           6           7           8           9          10
 ........................................................................................................................
   1   -25.00      -25.00      -25.00      -25.00      -25.00      -25.00      -25.00      -25.00      -25.00      -25.00    

 HEAD WILL BE SAVED ON UNIT 1022 AT END OF TIME STEP    1, STRESS PERIOD    3


  UZF-1 BUDGET FOR ENTIRE MODEL AT END OF TIME STEP    1, STRESS PERIOD   3
  ------------------------------------------------------------------------------

     CUMULATIVE UZF-1      L**3       RATES FOR THIS TIME STEP      L**3/T
     ------------------                 ------------------------

           IN:                                      IN:
           ---                                      ---
                 GWF =           0.0000                   GWF =           0.0000
        INFILTRATION =      336000.0000          INFILTRATION =        8000.0000
             REJ-INF =           0.0000               REJ-INF =           0.0000
                UZET =           0.0000                  UZET =           0.0000
             STORAGE =           0.0000               STORAGE =           0.0000

            TOTAL IN =      336000.0000              TOTAL IN =        8000.0000

          OUT:                                     OUT:
          ----                                     ----
                 GWF =           0.0000                   GWF =           0.0000
        INFILTRATION =           0.0000          INFILTRATION =           0.0000
             REJ-INF =           0.0000               REJ-INF =           0.0000
                UZET =          10.3215                  UZET =           0.2811
             STORAGE =      335989.6785               STORAGE =        7999.7189

           TOTAL OUT =      336000.0000             TOTAL OUT =        8000.0000

            IN - OUT =       1.7988E-06              IN - OUT =       1.6371E-11

 PERCENT DISCREPANCY =           0.00     PERCENT DISCREPANCY =           0.00



  VOLUME BUDGET FOR ENTIRE MODEL AT END OF TIME STEP    1, STRESS PERIOD   3
  ---------------------------------------------------------------------------------------------------

     CUMULATIVE VOLUME      L**3       RATES FOR THIS TIME STEP      L**3/T          PACKAGE NAME    
     ------------------                 ------------------------                     ----------------

           IN:                                      IN:
           ---                                      ---
              STO-SS =           0.0000                STO-SS =           0.0000     STORAGE         
              STO-SY =           0.0000                STO-SY =           0.0000     STORAGE         
                 CHD =           0.0000                   CHD =           0.0000     CHD-1           
           UZF-GWRCH =           0.0000             UZF-GWRCH =           0.0000     UZF-1           
             UZF-GWD =           0.0000               UZF-GWD =           0.0000     UZF-1           
            UZF-GWET =           0.0000              UZF-GWET =           0.0000     UZF-1           

            TOTAL IN =           0.0000              TOTAL IN =           0.0000

          OUT:                                     OUT:
          ----                                     ----
              STO-SS =           0.0000                STO-SS =           0.0000     STORAGE         
              STO-SY =           0.0000                STO-SY =           0.0000     STORAGE         
                 CHD =           0.0000                   CHD =           0.0000     CHD-1           
           UZF-GWRCH =           0.0000             UZF-GWRCH =           0.0000     UZF-1           
             UZF-GWD =           0.0000               UZF-GWD =           0.0000     UZF-1           
            UZF-GWET =           0.0000              UZF-GWET =           0.0000     UZF-1           

           TOTAL OUT =           0.0000             TOTAL OUT =           0.0000

            IN - OUT =           0.0000              IN - OUT =           0.0000

 PERCENT DISCREPANCY =           0.00     PERCENT DISCREPANCY =           0.00




         TIME SUMMARY AT END OF TIME STEP    1 IN STRESS PERIOD    3
                    SECONDS     MINUTES      HOURS       DAYS        YEARS
                    -----------------------------------------------------------
   TIME STEP LENGTH 1.72800E+05  2880.0      48.000      2.0000     5.47570E-03
 STRESS PERIOD TIME 1.72800E+05  2880.0      48.000      2.0000     5.47570E-03
         TOTAL TIME 3.62880E+06  60480.      1008.0      42.000     0.11499    


end timestep


start timestep kper="3" kstp="2" mode="normal"

 UBDSV1 SAVING     FLOW-JA-FACE ON UNIT   1020 AT TIME STEP      2, STRESS PERIOD      3
 UBDSV06 SAVING     FLOW-JA-FACE IN MODEL GWF_1            PACKAGE UZF-1           CONNECTED TO MODEL GWF_1            PACKAGE UZF-1            ON UNIT   1014 AT TIME STEP      2, STRESS PERIOD      3
 UBDSV06 SAVING              GWF IN MODEL GWF_1            PACKAGE UZF-1           CONNECTED TO MODEL GWF_1            PACKAGE GWF_1            ON UNIT   1014 AT TIME STEP      2, STRESS PERIOD      3
 UBDSV06 SAVING     INFILTRATION IN MODEL GWF_1            PACKAGE UZF-1           CONNECTED TO MODEL GWF_1            PACKAGE UZF-1            ON UNIT   1014 AT TIME STEP      2, STRESS PERIOD      3
 UBDSV06 SAVING          REJ-INF IN MODEL GWF_1            PACKAGE UZF-1           CONNECTED TO MODEL GWF_1            PACKAGE UZF-1            ON UNIT   1014 AT TIME STEP      2, STRESS PERIOD      3
 UBDSV06 SAVING             UZET IN MODEL GWF_1            PACKAGE UZF-1           CONNECTED TO MODEL GWF_1            PACKAGE UZF-1            ON UNIT   1014 AT TIME STEP      2, STRESS PERIOD      3
 UBDSV06 SAVING          STORAGE IN MODEL GWF_1            PACKAGE UZF-1           CONNECTED TO MODEL GWF_1            PACKAGE UZF-1            ON UNIT   1014 AT TIME STEP      2, STRESS PERIOD      3

 CHD PACKAGE (CHD-1) FLOW RATES   PERIOD      3   STEP        2
 -----------------------------------------------
   NUMBER   CELLID                    RATE      
 -----------------------------------------------
     1      (3,1,1)               0.0000000     
     2      (3,1,10)              0.0000000     
 -----------------------------------------------




 UZF-GWRCH PACKAGE (UZF-1) FLOW RATES   PERIOD      3   STEP        2
 ----------------------------------------------------------------------------------------
   NUMBER   CELLID                    RATE       NAME                                    
 ----------------------------------------------------------------------------------------
     1      (1,1,2)               0.0000000      UZF01                                   
     2      (1,1,3)               0.0000000      UZF02                                   
     3      (1,1,4)               0.0000000      UZF03                                   
     4      (1,1,5)               0.0000000      UZF04                                   
     5      (1,1,6)               0.0000000      UZF05                                   
     6      (1,1,7)               0.0000000      UZF06                                   
     7      (1,1,8)               0.0000000      UZF07                                   
     8      (1,1,9)               0.0000000      UZF08                                   
     9      (2,1,2)               0.0000000      UZF08                                   
     10     (2,1,3)               0.0000000      UZF10                                   
     11     (2,1,4)               0.0000000      UZF11                                   
     12     (2,1,5)               0.0000000      UZF12                                   
     13     (2,1,6)               0.0000000      UZF13                                   
     14     (2,1,7)               0.0000000      UZF14                                   
     15     (2,1,8)               0.0000000      UZF15                                   
     16     (2,1,9)               0.0000000      UZF16                                   
     17     (3,1,2)               0.0000000      UZF17                                   
     18     (3,1,3)               0.0000000      UZF18                                   
     19     (3,1,4)               0.0000000      UZF19                                   
     20     (3,1,5)               0.0000000      UZF20                                   
     21     (3,1,6)               0.0000000      UZF21                                   
     22     (3,1,7)               0.0000000      UZF22                                   
     23     (3,1,8)               0.0000000      UZF23                                   
     24     (3,1,9)               0.0000000      UZF24                                   
 ----------------------------------------------------------------------------------------




 UZF-GWD PACKAGE (UZF-1) FLOW RATES   PERIOD      3   STEP        2
 ----------------------------------------------------------------------------------------
   NUMBER   CELLID                    RATE       NAME                                    
 ----------------------------------------------------------------------------------------
     1      (1,1,2)               0.0000000      UZF01                                   
     2      (1,1,3)               0.0000000      UZF02                                   
     3      (1,1,4)               0.0000000      UZF03                                   
     4      (1,1,5)               0.0000000      UZF04                                   
     5      (1,1,6)               0.0000000      UZF05                                   
     6      (1,1,7)               0.0000000      UZF06                                   
     7      (1,1,8)               0.0000000      UZF07                                   
     8      (1,1,9)               0.0000000      UZF08                                   
     9      (2,1,2)               0.0000000      UZF08                                   
     10     (2,1,3)               0.0000000      UZF10                                   
     11     (2,1,4)               0.0000000      UZF11                                   
     12     (2,1,5)               0.0000000      UZF12                                   
     13     (2,1,6)               0.0000000      UZF13                                   
     14     (2,1,7)               0.0000000      UZF14                                   
     15     (2,1,8)               0.0000000      UZF15                                   
     16     (2,1,9)               0.0000000      UZF16                                   
     17     (3,1,2)               0.0000000      UZF17                                   
     18     (3,1,3)               0.0000000      UZF18                                   
     19     (3,1,4)               0.0000000      UZF19                                   
     20     (3,1,5)               0.0000000      UZF20                                   
     21     (3,1,6)               0.0000000      UZF21                                   
     22     (3,1,7)               0.0000000      UZF22                                   
     23     (3,1,8)               0.0000000      UZF23                                   
     24     (3,1,9)               0.0000000      UZF24                                   
 ----------------------------------------------------------------------------------------




 UZF-GWET PACKAGE (UZF-1) FLOW RATES   PERIOD      3   STEP        2
 ----------------------------------------------------------------------------------------
   NUMBER   CELLID                    RATE       NAME                                    
 ----------------------------------------------------------------------------------------
     1      (1,1,2)               0.0000000      UZF01                                   
     2      (1,1,3)               0.0000000      UZF02                                   
     3      (1,1,4)               0.0000000      UZF03                                   
     4      (1,1,5)               0.0000000      UZF04                                   
     5      (1,1,6)               0.0000000      UZF05                                   
     6      (1,1,7)               0.0000000      UZF06                                   
     7      (1,1,8)               0.0000000      UZF07                                   
     8      (1,1,9)               0.0000000      UZF08                                   
     9      (2,1,2)               0.0000000      UZF08                                   
     10     (2,1,3)               0.0000000      UZF10                                   
     11     (2,1,4)               0.0000000      UZF11                                   
     12     (2,1,5)               0.0000000      UZF12                                   
     13     (2,1,6)               0.0000000      UZF13                                   
     14     (2,1,7)               0.0000000      UZF14                                   
     15     (2,1,8)               0.0000000      UZF15                                   
     16     (2,1,9)               0.0000000      UZF16                                   
     17     (3,1,2)               0.0000000      UZF17                                   
     18     (3,1,3)               0.0000000      UZF18                                   
     19     (3,1,4)               0.0000000      UZF19                                   
     20     (3,1,5)               0.0000000      UZF20                                   
     21     (3,1,6)               0.0000000      UZF21                                   
     22     (3,1,7)               0.0000000      UZF22                                   
     23     (3,1,8)               0.0000000      UZF23                                   
     24     (3,1,9)               0.0000000      UZF24                                   
 ----------------------------------------------------------------------------------------




 UZF-1 PACKAGE - SUMMARY OF FLOWS FOR EACH CONTROL VOLUME   PERIOD      3   STEP        2
 ----------------------------------------------------------------------------------------------------------------------------------------------------
                                                                                                                                           PERCENT   
   NUMBER   CELLID                  INFLOW      OUTFLOW        GWF      INFILTRATION   REJ INF        UZET       STORAGE      IN - OUT    DIFFERENCE 
 ----------------------------------------------------------------------------------------------------------------------------------------------------
     1      (1,1,2)               0.0000      -654.13       0.0000       1000.0       0.0000      -4.12436E-02 -345.82      -1.36424E-12 -1.36424E-13
     2      (1,1,3)               0.0000      -654.13       0.0000       1000.0       0.0000      -4.12436E-02 -345.82      -1.36424E-12 -1.36424E-13
     3      (1,1,4)               0.0000      -654.13       0.0000       1000.0       0.0000      -4.12436E-02 -345.82      -1.36424E-12 -1.36424E-13
     4      (1,1,5)               0.0000      -654.13       0.0000       1000.0       0.0000      -4.12436E-02 -345.82      -1.36424E-12 -1.36424E-13
     5      (1,1,6)               0.0000      -654.13       0.0000       1000.0       0.0000      -4.12436E-02 -345.82      -1.36424E-12 -1.36424E-13
     6      (1,1,7)               0.0000      -654.13       0.0000       1000.0       0.0000      -4.12436E-02 -345.82      -1.36424E-12 -1.36424E-13
     7      (1,1,8)               0.0000      -654.13       0.0000       1000.0       0.0000      -4.12436E-02 -345.82      -1.36424E-12 -1.36424E-13
     8      (1,1,9)               0.0000      -654.13       0.0000       1000.0       0.0000      -4.12436E-02 -345.82      -1.36424E-12 -1.36424E-13
     9      (2,1,2)               654.13       0.0000       0.0000       0.0000       0.0000      -6.00652E-04 -654.13       5.68434E-13  8.68987E-14
     10     (2,1,3)               654.13       0.0000       0.0000       0.0000       0.0000      -6.00652E-04 -654.13       5.68434E-13  8.68987E-14
     11     (2,1,4)               654.13       0.0000       0.0000       0.0000       0.0000      -6.00652E-04 -654.13       5.68434E-13  8.68987E-14
     12     (2,1,5)               654.13       0.0000       0.0000       0.0000       0.0000      -6.00652E-04 -654.13       5.68434E-13  8.68987E-14
     13     (2,1,6)               654.13       0.0000       0.0000       0.0000       0.0000      -6.00652E-04 -654.13       5.68434E-13  8.68987E-14
     14     (2,1,7)               654.13       0.0000       0.0000       0.0000       0.0000      -6.00652E-04 -654.13       5.68434E-13  8.68987E-14
     15     (2,1,8)               654.13       0.0000       0.0000       0.0000       0.0000      -6.00652E-04 -654.13       5.68434E-13  8.68987E-14
     16     (2,1,9)               654.13       0.0000       0.0000       0.0000       0.0000      -6.00652E-04 -654.13       5.68434E-13  8.68987E-14
     17     (3,1,2)               0.0000       0.0000       0.0000       0.0000       0.0000       0.0000       0.0000       0.0000       0.0000     
     18     (3,1,3)               0.0000       0.0000       0.0000       0.0000       0.0000       0.0000       0.0000       0.0000       0.0000     
     19     (3,1,4)               0.0000       0.0000       0.0000       0.0000       0.0000       0.0000       0.0000       0.0000       0.0000     
     20     (3,1,5)               0.0000       0.0000       0.0000       0.0000       0.0000       0.0000       0.0000       0.0000       0.0000     
     21     (3,1,6)               0.0000       0.0000       0.0000       0.0000       0.0000       0.0000       0.0000       0.0000       0.0000     
     22     (3,1,7)               0.0000       0.0000       0.0000       0.0000       0.0000       0.0000       0.0000       0.0000       0.0000     
     23     (3,1,8)               0.0000       0.0000       0.0000       0.0000       0.0000       0.0000       0.0000       0.0000       0.0000     
     24     (3,1,9)               0.0000       0.0000       0.0000       0.0000       0.0000       0.0000       0.0000       0.0000       0.0000     
 ----------------------------------------------------------------------------------------------------------------------------------------------------


1
  HEAD IN LAYER   1 AT END OF TIME STEP   2 IN STRESS PERIOD    3
  ---------------------------------------------------------------------------

            1           2           3           4           5           6           7           8           9          10
 ........................................................................................................................
   1   -25.00      -25.00      -25.00      -25.00      -25.00      -25.00      -25.00      -25.00      -25.00      -25.00    
1
  HEAD IN LAYER   2 AT END OF TIME STEP   2 IN STRESS PERIOD    3
  ---------------------------------------------------------------------------

            1           2           3           4           5           6           7           8           9          10
 ........................................................................................................................
   1   -25.00      -25.00      -25.00      -25.00      -25.00      -25.00      -25.00      -25.00      -25.00      -25.00    
1
  HEAD IN LAYER   3 AT END OF TIME STEP   2 IN STRESS PERIOD    3
  ---------------------------------------------------------------------------

            1           2           3           4           5           6           7           8           9          10
 ........................................................................................................................
   1   -25.00      -25.00      -25.00      -25.00      -25.00      -25.00      -25.00      -25.00      -25.00      -25.00    

 HEAD WILL BE SAVED ON UNIT 1022 AT END OF TIME STEP    2, STRESS PERIOD    3


  UZF-1 BUDGET FOR ENTIRE MODEL AT END OF TIME STEP    2, STRESS PERIOD   3
  ------------------------------------------------------------------------------

     CUMULATIVE UZF-1      L**3       RATES FOR THIS TIME STEP      L**3/T
     ------------------                 ------------------------

           IN:                                      IN:
           ---                                      ---
                 GWF =           0.0000                   GWF =           0.0000
        INFILTRATION =      352000.0000          INFILTRATION =        8000.0000
             REJ-INF =           0.0000               REJ-INF =           0.0000
                UZET =           0.0000                  UZET =           0.0000
             STORAGE =           0.0000               STORAGE =           0.0000

            TOTAL IN =      352000.0000              TOTAL IN =        8000.0000

          OUT:                                     OUT:
          ----                                     ----
                 GWF =           0.0000                   GWF =           0.0000
        INFILTRATION =           0.0000          INFILTRATION =           0.0000
             REJ-INF =           0.0000               REJ-INF =           0.0000
                UZET =          10.9911                  UZET =           0.3348
             STORAGE =      351989.0089               STORAGE =        7999.6652

           TOTAL OUT =      352000.0000             TOTAL OUT =        8000.0000

            IN - OUT =       1.7988E-06              IN - OUT =      -8.1855E-12

 PERCENT DISCREPANCY =           0.00     PERCENT DISCREPANCY =          -0.00



  VOLUME BUDGET FOR ENTIRE MODEL AT END OF TIME STEP    2, STRESS PERIOD   3
  ---------------------------------------------------------------------------------------------------

     CUMULATIVE VOLUME      L**3       RATES FOR THIS TIME STEP      L**3/T          PACKAGE NAME    
     ------------------                 ------------------------                     ----------------

           IN:                                      IN:
           ---                                      ---
              STO-SS =           0.0000                STO-SS =           0.0000     STORAGE         
              STO-SY =           0.0000                STO-SY =           0.0000     STORAGE         
                 CHD =           0.0000                   CHD =           0.0000     CHD-1           
           UZF-GWRCH =           0.0000             UZF-GWRCH =           0.0000     UZF-1           
             UZF-GWD =           0.0000               UZF-GWD =           0.0000     UZF-1           
            UZF-GWET =           0.0000              UZF-GWET =           0.0000     UZF-1           

            TOTAL IN =           0.0000              TOTAL IN =           0.0000

          OUT:                                     OUT:
          ----                                     ----
              STO-SS =           0.0000                STO-SS =           0.0000     STORAGE         
              STO-SY =           0.0000                STO-SY =           0.0000     STORAGE         
                 CHD =           0.0000                   CHD =           0.0000     CHD-1           
           UZF-GWRCH =           0.0000             UZF-GWRCH =           0.0000     UZF-1           
             UZF-GWD =           0.0000               UZF-GWD =           0.0000     UZF-1           
            UZF-GWET =           0.0000              UZF-GWET =           0.0000     UZF-1           

           TOTAL OUT =           0.0000             TOTAL OUT =           0.0000

            IN - OUT =           0.0000              IN - OUT =           0.0000

 PERCENT DISCREPANCY =           0.00     PERCENT DISCREPANCY =           0.00




         TIME SUMMARY AT END OF TIME STEP    2 IN STRESS PERIOD    3
                    SECONDS     MINUTES      HOURS       DAYS        YEARS
                    -----------------------------------------------------------
   TIME STEP LENGTH 1.72800E+05  2880.0      48.000      2.0000     5.47570E-03
 STRESS PERIOD TIME 3.45600E+05  5760.0      96.000      4.0000     1.09514E-02
         TOTAL TIME 3.80160E+06  63360.      1056.0      44.000     0.12047    


end timestep


start timestep kper="3" kstp="3" mode="normal"

 UBDSV1 SAVING     FLOW-JA-FACE ON UNIT   1020 AT TIME STEP      3, STRESS PERIOD      3
 UBDSV06 SAVING     FLOW-JA-FACE IN MODEL GWF_1            PACKAGE UZF-1           CONNECTED TO MODEL GWF_1            PACKAGE UZF-1            ON UNIT   1014 AT TIME STEP      3, STRESS PERIOD      3
 UBDSV06 SAVING              GWF IN MODEL GWF_1            PACKAGE UZF-1           CONNECTED TO MODEL GWF_1            PACKAGE GWF_1            ON UNIT   1014 AT TIME STEP      3, STRESS PERIOD      3
 UBDSV06 SAVING     INFILTRATION IN MODEL GWF_1            PACKAGE UZF-1           CONNECTED TO MODEL GWF_1            PACKAGE UZF-1            ON UNIT   1014 AT TIME STEP      3, STRESS PERIOD      3
 UBDSV06 SAVING          REJ-INF IN MODEL GWF_1            PACKAGE UZF-1           CONNECTED TO MODEL GWF_1            PACKAGE UZF-1            ON UNIT   1014 AT TIME STEP      3, STRESS PERIOD      3
 UBDSV06 SAVING             UZET IN MODEL GWF_1            PACKAGE UZF-1           CONNECTED TO MODEL GWF_1            PACKAGE UZF-1            ON UNIT   1014 AT TIME STEP      3, STRESS PERIOD      3
 UBDSV06 SAVING          STORAGE IN MODEL GWF_1            PACKAGE UZF-1           CONNECTED TO MODEL GWF_1            PACKAGE UZF-1            ON UNIT   1014 AT TIME STEP      3, STRESS PERIOD      3

 CHD PACKAGE (CHD-1) FLOW RATES   PERIOD      3   STEP        3
 -----------------------------------------------
   NUMBER   CELLID                    RATE      
 -----------------------------------------------
     1      (3,1,1)               0.0000000     
     2      (3,1,10)              0.0000000     
 -----------------------------------------------




 UZF-GWRCH PACKAGE (UZF-1) FLOW RATES   PERIOD      3   STEP        3
 ----------------------------------------------------------------------------------------
   NUMBER   CELLID                    RATE       NAME                                    
 ----------------------------------------------------------------------------------------
     1      (1,1,2)               0.0000000      UZF01                                   
     2      (1,1,3)               0.0000000      UZF02                                   
     3      (1,1,4)               0.0000000      UZF03                                   
     4      (1,1,5)               0.0000000      UZF04                                   
     5      (1,1,6)               0.0000000      UZF05                                   
     6      (1,1,7)               0.0000000      UZF06                                   
     7      (1,1,8)               0.0000000      UZF07                                   
     8      (1,1,9)               0.0000000      UZF08                                   
     9      (2,1,2)               0.0000000      UZF08                                   
     10     (2,1,3)               0.0000000      UZF10                                   
     11     (2,1,4)               0.0000000      UZF11                                   
     12     (2,1,5)               0.0000000      UZF12                                   
     13     (2,1,6)               0.0000000      UZF13                                   
     14     (2,1,7)               0.0000000      UZF14                                   
     15     (2,1,8)               0.0000000      UZF15                                   
     16     (2,1,9)               0.0000000      UZF16                                   
     17     (3,1,2)               0.0000000      UZF17                                   
     18     (3,1,3)               0.0000000      UZF18                                   
     19     (3,1,4)               0.0000000      UZF19                                   
     20     (3,1,5)               0.0000000      UZF20                                   
     21     (3,1,6)               0.0000000      UZF21                                   
     22     (3,1,7)               0.0000000      UZF22                                   
     23     (3,1,8)               0.0000000      UZF23                                   
     24     (3,1,9)               0.0000000      UZF24                                   
 ----------------------------------------------------------------------------------------




 UZF-GWD PACKAGE (UZF-1) FLOW RATES   PERIOD      3   STEP        3
 ----------------------------------------------------------------------------------------
   NUMBER   CELLID                    RATE       NAME                                    
 ----------------------------------------------------------------------------------------
     1      (1,1,2)               0.0000000      UZF01                                   
     2      (1,1,3)               0.0000000      UZF02                                   
     3      (1,1,4)               0.0000000      UZF03                                   
     4      (1,1,5)               0.0000000      UZF04                                   
     5      (1,1,6)               0.0000000      UZF05                                   
     6      (1,1,7)               0.0000000      UZF06                                   
     7      (1,1,8)               0.0000000      UZF07                                   
     8      (1,1,9)               0.0000000      UZF08                                   
     9      (2,1,2)               0.0000000      UZF08                                   
     10     (2,1,3)               0.0000000      UZF10                                   
     11     (2,1,4)               0.0000000      UZF11                                   
     12     (2,1,5)               0.0000000      UZF12                                   
     13     (2,1,6)               0.0000000      UZF13                                   
     14     (2,1,7)               0.0000000      UZF14                                   
     15     (2,1,8)               0.0000000      UZF15                                   
     16     (2,1,9)               0.0000000      UZF16                                   
     17     (3,1,2)               0.0000000      UZF17                                   
     18     (3,1,3)               0.0000000      UZF18                                   
     19     (3,1,4)               0.0000000      UZF19                                   
     20     (3,1,5)               0.0000000      UZF20                                   
     21     (3,1,6)               0.0000000      UZF21                                   
     22     (3,1,7)               0.0000000      UZF22                                   
     23     (3,1,8)               0.0000000      UZF23                                   
     24     (3,1,9)               0.0000000      UZF24                                   
 ----------------------------------------------------------------------------------------




 UZF-GWET PACKAGE (UZF-1) FLOW RATES   PERIOD      3   STEP        3
 ----------------------------------------------------------------------------------------
   NUMBER   CELLID                    RATE       NAME                                    
 ----------------------------------------------------------------------------------------
     1      (1,1,2)               0.0000000      UZF01                                   
     2      (1,1,3)               0.0000000      UZF02                                   
     3      (1,1,4)               0.0000000      UZF03                                   
     4      (1,1,5)               0.0000000      UZF04                                   
     5      (1,1,6)               0.0000000      UZF05                                   
     6      (1,1,7)               0.0000000      UZF06                                   
     7      (1,1,8)               0.0000000      UZF07                                   
     8      (1,1,9)               0.0000000      UZF08                                   
     9      (2,1,2)               0.0000000      UZF08                                   
     10     (2,1,3)               0.0000000      UZF10                                   
     11     (2,1,4)               0.0000000      UZF11                                   
     12     (2,1,5)               0.0000000      UZF12                                   
     13     (2,1,6)               0.0000000      UZF13                                   
     14     (2,1,7)               0.0000000      UZF14                                   
     15     (2,1,8)               0.0000000      UZF15                                   
     16     (2,1,9)               0.0000000      UZF16                                   
     17     (3,1,2)               0.0000000      UZF17                                   
     18     (3,1,3)               0.0000000      UZF18                                   
     19     (3,1,4)               0.0000000      UZF19                                   
     20     (3,1,5)               0.0000000      UZF20                                   
     21     (3,1,6)               0.0000000      UZF21                                   
     22     (3,1,7)               0.0000000      UZF22                                   
     23     (3,1,8)               0.0000000      UZF23                                   
     24     (3,1,9)               0.0000000      UZF24                                   
 ----------------------------------------------------------------------------------------




 UZF-1 PACKAGE - SUMMARY OF FLOWS FOR EACH CONTROL VOLUME   PERIOD      3   STEP        3
 ----------------------------------------------------------------------------------------------------------------------------------------------------
                                                                                                                                           PERCENT   
   NUMBER   CELLID                  INFLOW      OUTFLOW        GWF      INFILTRATION   REJ INF        UZET       STORAGE      IN - OUT    DIFFERENCE 
 ----------------------------------------------------------------------------------------------------------------------------------------------------
     1      (1,1,2)               0.0000      -999.94       0.0000       1000.0       0.0000      -4.68654E-02 -1.49733E-02 -3.41061E-12 -3.41061E-13
     2      (1,1,3)               0.0000      -999.94       0.0000       1000.0       0.0000      -4.68654E-02 -1.49733E-02 -3.41061E-12 -3.41061E-13
     3      (1,1,4)               0.0000      -999.94       0.0000       1000.0       0.0000      -4.68654E-02 -1.49733E-02 -3.41061E-12 -3.41061E-13
     4      (1,1,5)               0.0000      -999.94       0.0000       1000.0       0.0000      -4.68654E-02 -1.49733E-02 -3.41061E-12 -3.41061E-13
     5      (1,1,6)               0.0000      -999.94       0.0000       1000.0       0.0000      -4.68654E-02 -1.49733E-02 -3.41061E-12 -3.41061E-13
     6      (1,1,7)               0.0000      -999.94       0.0000       1000.0       0.0000      -4.68654E-02 -1.49733E-02 -3.41061E-12 -3.41061E-13
     7      (1,1,8)               0.0000      -999.94       0.0000       1000.0       0.0000      -4.68654E-02 -1.49733E-02 -3.41061E-12 -3.41061E-13
     8      (1,1,9)               0.0000      -999.94       0.0000       1000.0       0.0000      -4.68654E-02 -1.49733E-02 -3.41061E-12 -3.41061E-13
     9      (2,1,2)               999.94       0.0000       0.0000       0.0000       0.0000      -1.23525E-03 -999.94      -1.70530E-12 -1.70541E-13
     10     (2,1,3)               999.94       0.0000       0.0000       0.0000       0.0000      -1.23525E-03 -999.94      -1.70530E-12 -1.70541E-13
     11     (2,1,4)               999.94       0.0000       0.0000       0.0000       0.0000      -1.23525E-03 -999.94      -1.70530E-12 -1.70541E-13
     12     (2,1,5)               999.94       0.0000       0.0000       0.0000       0.0000      -1.23525E-03 -999.94      -1.70530E-12 -1.70541E-13
     13     (2,1,6)               999.94       0.0000       0.0000       0.0000       0.0000      -1.23525E-03 -999.94      -1.70530E-12 -1.70541E-13
     14     (2,1,7)               999.94       0.0000       0.0000       0.0000       0.0000      -1.23525E-03 -999.94      -1.70530E-12 -1.70541E-13
     15     (2,1,8)               999.94       0.0000       0.0000       0.0000       0.0000      -1.23525E-03 -999.94      -1.70530E-12 -1.70541E-13
     16     (2,1,9)               999.94       0.0000       0.0000       0.0000       0.0000      -1.23525E-03 -999.94      -1.70530E-12 -1.70541E-13
     17     (3,1,2)               0.0000       0.0000       0.0000       0.0000       0.0000       0.0000       0.0000       0.0000       0.0000     
     18     (3,1,3)               0.0000       0.0000       0.0000       0.0000       0.0000       0.0000       0.0000       0.0000       0.0000     
     19     (3,1,4)               0.0000       0.0000       0.0000       0.0000       0.0000       0.0000       0.0000       0.0000       0.0000     
     20     (3,1,5)               0.0000       0.0000       0.0000       0.0000       0.0000       0.0000       0.0000       0.0000       0.0000     
     21     (3,1,6)               0.0000       0.0000       0.0000       0.0000       0.0000       0.0000       0.0000       0.0000       0.0000     
     22     (3,1,7)               0.0000       0.0000       0.0000       0.0000       0.0000       0.0000       0.0000       0.0000       0.0000     
     23     (3,1,8)               0.0000       0.0000       0.0000       0.0000       0.0000       0.0000       0.0000       0.0000       0.0000     
     24     (3,1,9)               0.0000       0.0000       0.0000       0.0000       0.0000       0.0000       0.0000       0.0000       0.0000     
 ----------------------------------------------------------------------------------------------------------------------------------------------------


1
  HEAD IN LAYER   1 AT END OF TIME STEP   3 IN STRESS PERIOD    3
  ---------------------------------------------------------------------------

            1           2           3           4           5           6           7           8           9          10
 ........................................................................................................................
   1   -25.00      -25.00      -25.00      -25.00      -25.00      -25.00      -25.00      -25.00      -25.00      -25.00    
1
  HEAD IN LAYER   2 AT END OF TIME STEP   3 IN STRESS PERIOD    3
  ---------------------------------------------------------------------------

            1           2           3           4           5           6           7           8           9          10
 ........................................................................................................................
   1   -25.00      -25.00      -25.00      -25.00      -25.00      -25.00      -25.00      -25.00      -25.00      -25.00    
1
  HEAD IN LAYER   3 AT END OF TIME STEP   3 IN STRESS PERIOD    3
  ---------------------------------------------------------------------------

            1           2           3           4           5           6           7           8           9          10
 ........................................................................................................................
   1   -25.00      -25.00      -25.00      -25.00      -25.00      -25.00      -25.00      -25.00      -25.00      -25.00    

 HEAD WILL BE SAVED ON UNIT 1022 AT END OF TIME STEP    3, STRESS PERIOD    3


  UZF-1 BUDGET FOR ENTIRE MODEL AT END OF TIME STEP    3, STRESS PERIOD   3
  ------------------------------------------------------------------------------

     CUMULATIVE UZF-1      L**3       RATES FOR THIS TIME STEP      L**3/T
     ------------------                 ------------------------

           IN:                                      IN:
           ---                                      ---
                 GWF =           0.0000                   GWF =           0.0000
        INFILTRATION =      368000.0000          INFILTRATION =        8000.0000
             REJ-INF =           0.0000               REJ-INF =           0.0000
                UZET =           0.0000                  UZET =           0.0000
             STORAGE =           0.0000               STORAGE =           0.0000

            TOTAL IN =      368000.0000              TOTAL IN =        8000.0000

          OUT:                                     OUT:
          ----                                     ----
                 GWF =           0.0000                   GWF =           0.0000
        INFILTRATION =           0.0000          INFILTRATION =           0.0000
             REJ-INF =           0.0000               REJ-INF =           0.0000
                UZET =          11.7607                  UZET =           0.3848
             STORAGE =      367988.2393               STORAGE =        7999.6152

           TOTAL OUT =      368000.0000             TOTAL OUT =        8000.0000

            IN - OUT =       1.7987E-06              IN - OUT =      -4.0927E-11

 PERCENT DISCREPANCY =           0.00     PERCENT DISCREPANCY =          -0.00



  VOLUME BUDGET FOR ENTIRE MODEL AT END OF TIME STEP    3, STRESS PERIOD   3
  ---------------------------------------------------------------------------------------------------

     CUMULATIVE VOLUME      L**3       RATES FOR THIS TIME STEP      L**3/T          PACKAGE NAME    
     ------------------                 ------------------------                     ----------------

           IN:                                      IN:
           ---                                      ---
              STO-SS =           0.0000                STO-SS =           0.0000     STORAGE         
              STO-SY =           0.0000                STO-SY =           0.0000     STORAGE         
                 CHD =           0.0000                   CHD =           0.0000     CHD-1           
           UZF-GWRCH =           0.0000             UZF-GWRCH =           0.0000     UZF-1           
             UZF-GWD =           0.0000               UZF-GWD =           0.0000     UZF-1           
            UZF-GWET =           0.0000              UZF-GWET =           0.0000     UZF-1           

            TOTAL IN =           0.0000              TOTAL IN =           0.0000

          OUT:                                     OUT:
          ----                                     ----
              STO-SS =           0.0000                STO-SS =           0.0000     STORAGE         
              STO-SY =           0.0000                STO-SY =           0.0000     STORAGE         
                 CHD =           0.0000                   CHD =           0.0000     CHD-1           
           UZF-GWRCH =           0.0000             UZF-GWRCH =           0.0000     UZF-1           
             UZF-GWD =           0.0000               UZF-GWD =           0.0000     UZF-1           
            UZF-GWET =           0.0000              UZF-GWET =           0.0000     UZF-1           

           TOTAL OUT =           0.0000             TOTAL OUT =           0.0000

            IN - OUT =           0.0000              IN - OUT =           0.0000

 PERCENT DISCREPANCY =           0.00     PERCENT DISCREPANCY =           0.00




         TIME SUMMARY AT END OF TIME STEP    3 IN STRESS PERIOD    3
                    SECONDS     MINUTES      HOURS       DAYS        YEARS
                    -----------------------------------------------------------
   TIME STEP LENGTH 1.72800E+05  2880.0      48.000      2.0000     5.47570E-03
 STRESS PERIOD TIME 5.18400E+05  8640.0      144.00      6.0000     1.64271E-02
         TOTAL TIME 3.97440E+06  66240.      1104.0      46.000     0.12594    


end timestep


start timestep kper="3" kstp="4" mode="normal"

 UBDSV1 SAVING     FLOW-JA-FACE ON UNIT   1020 AT TIME STEP      4, STRESS PERIOD      3
 UBDSV06 SAVING     FLOW-JA-FACE IN MODEL GWF_1            PACKAGE UZF-1           CONNECTED TO MODEL GWF_1            PACKAGE UZF-1            ON UNIT   1014 AT TIME STEP      4, STRESS PERIOD      3
 UBDSV06 SAVING              GWF IN MODEL GWF_1            PACKAGE UZF-1           CONNECTED TO MODEL GWF_1            PACKAGE GWF_1            ON UNIT   1014 AT TIME STEP      4, STRESS PERIOD      3
 UBDSV06 SAVING     INFILTRATION IN MODEL GWF_1            PACKAGE UZF-1           CONNECTED TO MODEL GWF_1            PACKAGE UZF-1            ON UNIT   1014 AT TIME STEP      4, STRESS PERIOD      3
 UBDSV06 SAVING          REJ-INF IN MODEL GWF_1            PACKAGE UZF-1           CONNECTED TO MODEL GWF_1            PACKAGE UZF-1            ON UNIT   1014 AT TIME STEP      4, STRESS PERIOD      3
 UBDSV06 SAVING             UZET IN MODEL GWF_1            PACKAGE UZF-1           CONNECTED TO MODEL GWF_1            PACKAGE UZF-1            ON UNIT   1014 AT TIME STEP      4, STRESS PERIOD      3
 UBDSV06 SAVING          STORAGE IN MODEL GWF_1            PACKAGE UZF-1           CONNECTED TO MODEL GWF_1            PACKAGE UZF-1            ON UNIT   1014 AT TIME STEP      4, STRESS PERIOD      3

 CHD PACKAGE (CHD-1) FLOW RATES   PERIOD      3   STEP        4
 -----------------------------------------------
   NUMBER   CELLID                    RATE      
 -----------------------------------------------
     1      (3,1,1)               0.0000000     
     2      (3,1,10)              0.0000000     
 -----------------------------------------------




 UZF-GWRCH PACKAGE (UZF-1) FLOW RATES   PERIOD      3   STEP        4
 ----------------------------------------------------------------------------------------
   NUMBER   CELLID                    RATE       NAME                                    
 ----------------------------------------------------------------------------------------
     1      (1,1,2)               0.0000000      UZF01                                   
     2      (1,1,3)               0.0000000      UZF02                                   
     3      (1,1,4)               0.0000000      UZF03                                   
     4      (1,1,5)               0.0000000      UZF04                                   
     5      (1,1,6)               0.0000000      UZF05                                   
     6      (1,1,7)               0.0000000      UZF06                                   
     7      (1,1,8)               0.0000000      UZF07                                   
     8      (1,1,9)               0.0000000      UZF08                                   
     9      (2,1,2)               0.0000000      UZF08                                   
     10     (2,1,3)               0.0000000      UZF10                                   
     11     (2,1,4)               0.0000000      UZF11                                   
     12     (2,1,5)               0.0000000      UZF12                                   
     13     (2,1,6)               0.0000000      UZF13                                   
     14     (2,1,7)               0.0000000      UZF14                                   
     15     (2,1,8)               0.0000000      UZF15                                   
     16     (2,1,9)               0.0000000      UZF16                                   
     17     (3,1,2)               0.0000000      UZF17                                   
     18     (3,1,3)               0.0000000      UZF18                                   
     19     (3,1,4)               0.0000000      UZF19                                   
     20     (3,1,5)               0.0000000      UZF20                                   
     21     (3,1,6)               0.0000000      UZF21                                   
     22     (3,1,7)               0.0000000      UZF22                                   
     23     (3,1,8)               0.0000000      UZF23                                   
     24     (3,1,9)               0.0000000      UZF24                                   
 ----------------------------------------------------------------------------------------




 UZF-GWD PACKAGE (UZF-1) FLOW RATES   PERIOD      3   STEP        4
 ----------------------------------------------------------------------------------------
   NUMBER   CELLID                    RATE       NAME                                    
 ----------------------------------------------------------------------------------------
     1      (1,1,2)               0.0000000      UZF01                                   
     2      (1,1,3)               0.0000000      UZF02                                   
     3      (1,1,4)               0.0000000      UZF03                                   
     4      (1,1,5)               0.0000000      UZF04                                   
     5      (1,1,6)               0.0000000      UZF05                                   
     6      (1,1,7)               0.0000000      UZF06                                   
     7      (1,1,8)               0.0000000      UZF07                                   
     8      (1,1,9)               0.0000000      UZF08                                   
     9      (2,1,2)               0.0000000      UZF08                                   
     10     (2,1,3)               0.0000000      UZF10                                   
     11     (2,1,4)               0.0000000      UZF11                                   
     12     (2,1,5)               0.0000000      UZF12                                   
     13     (2,1,6)               0.0000000      UZF13                                   
     14     (2,1,7)               0.0000000      UZF14                                   
     15     (2,1,8)               0.0000000      UZF15                                   
     16     (2,1,9)               0.0000000      UZF16                                   
     17     (3,1,2)               0.0000000      UZF17                                   
     18     (3,1,3)               0.0000000      UZF18                                   
     19     (3,1,4)               0.0000000      UZF19                                   
     20     (3,1,5)               0.0000000      UZF20                                   
     21     (3,1,6)               0.0000000      UZF21                                   
     22     (3,1,7)               0.0000000      UZF22                                   
     23     (3,1,8)               0.0000000      UZF23                                   
     24     (3,1,9)               0.0000000      UZF24                                   
 ----------------------------------------------------------------------------------------




 UZF-GWET PACKAGE (UZF-1) FLOW RATES   PERIOD      3   STEP        4
 ----------------------------------------------------------------------------------------
   NUMBER   CELLID                    RATE       NAME                                    
 ----------------------------------------------------------------------------------------
     1      (1,1,2)               0.0000000      UZF01                                   
     2      (1,1,3)               0.0000000      UZF02                                   
     3      (1,1,4)               0.0000000      UZF03                                   
     4      (1,1,5)               0.0000000      UZF04                                   
     5      (1,1,6)               0.0000000      UZF05                                   
     6      (1,1,7)               0.0000000      UZF06                                   
     7      (1,1,8)               0.0000000      UZF07                                   
     8      (1,1,9)               0.0000000      UZF08                                   
     9      (2,1,2)               0.0000000      UZF08                                   
     10     (2,1,3)               0.0000000      UZF10                                   
     11     (2,1,4)               0.0000000      UZF11                                   
     12     (2,1,5)               0.0000000      UZF12                                   
     13     (2,1,6)               0.0000000      UZF13                                   
     14     (2,1,7)               0.0000000      UZF14                                   
     15     (2,1,8)               0.0000000      UZF15                                   
     16     (2,1,9)               0.0000000      UZF16                                   
     17     (3,1,2)               0.0000000      UZF17                                   
     18     (3,1,3)               0.0000000      UZF18                                   
     19     (3,1,4)               0.0000000      UZF19                                   
     20     (3,1,5)               0.0000000      UZF20                                   
     21     (3,1,6)               0.0000000      UZF21                                   
     22     (3,1,7)               0.0000000      UZF22                                   
     23     (3,1,8)               0.0000000      UZF23                                   
     24     (3,1,9)               0.0000000      UZF24                                   
 ----------------------------------------------------------------------------------------




 UZF-1 PACKAGE - SUMMARY OF FLOWS FOR EACH CONTROL VOLUME   PERIOD      3   STEP        4
 ----------------------------------------------------------------------------------------------------------------------------------------------------
                                                                                                                                           PERCENT   
   NUMBER   CELLID                  INFLOW      OUTFLOW        GWF      INFILTRATION   REJ INF        UZET       STORAGE      IN - OUT    DIFFERENCE 
 ----------------------------------------------------------------------------------------------------------------------------------------------------
     1      (1,1,2)               0.0000      -999.93       0.0000       1000.0       0.0000      -5.24871E-02 -1.49731E-02 -7.95808E-13 -7.95808E-14
     2      (1,1,3)               0.0000      -999.93       0.0000       1000.0       0.0000      -5.24871E-02 -1.49731E-02 -7.95808E-13 -7.95808E-14
     3      (1,1,4)               0.0000      -999.93       0.0000       1000.0       0.0000      -5.24871E-02 -1.49731E-02 -7.95808E-13 -7.95808E-14
     4      (1,1,5)               0.0000      -999.93       0.0000       1000.0       0.0000      -5.24871E-02 -1.49731E-02 -7.95808E-13 -7.95808E-14
     5      (1,1,6)               0.0000      -999.93       0.0000       1000.0       0.0000      -5.24871E-02 -1.49731E-02 -7.95808E-13 -7.95808E-14
     6      (1,1,7)               0.0000      -999.93       0.0000       1000.0       0.0000      -5.24871E-02 -1.49731E-02 -7.95808E-13 -7.95808E-14
     7      (1,1,8)               0.0000      -999.93       0.0000       1000.0       0.0000      -5.24871E-02 -1.49731E-02 -7.95808E-13 -7.95808E-14
     8      (1,1,9)               0.0000      -999.93       0.0000       1000.0       0.0000      -5.24871E-02 -1.49731E-02 -7.95808E-13 -7.95808E-14
     9      (2,1,2)               999.93       0.0000       0.0000       0.0000       0.0000      -1.77230E-03 -999.93       4.21616E-05  4.21644E-06
     10     (2,1,3)               999.93       0.0000       0.0000       0.0000       0.0000      -1.77230E-03 -999.93       4.21616E-05  4.21644E-06
     11     (2,1,4)               999.93       0.0000       0.0000       0.0000       0.0000      -1.77230E-03 -999.93       4.21616E-05  4.21644E-06
     12     (2,1,5)               999.93       0.0000       0.0000       0.0000       0.0000      -1.77230E-03 -999.93       4.21616E-05  4.21644E-06
     13     (2,1,6)               999.93       0.0000       0.0000       0.0000       0.0000      -1.77230E-03 -999.93       4.21616E-05  4.21644E-06
     14     (2,1,7)               999.93       0.0000       0.0000       0.0000       0.0000      -1.77230E-03 -999.93       4.21616E-05  4.21644E-06
     15     (2,1,8)               999.93       0.0000       0.0000       0.0000       0.0000      -1.77230E-03 -999.93       4.21616E-05  4.21644E-06
     16     (2,1,9)               999.93       0.0000       0.0000       0.0000       0.0000      -1.77230E-03 -999.93       4.21616E-05  4.21644E-06
     17     (3,1,2)               0.0000       0.0000       0.0000       0.0000       0.0000       0.0000       0.0000       0.0000       0.0000     
     18     (3,1,3)               0.0000       0.0000       0.0000       0.0000       0.0000       0.0000       0.0000       0.0000       0.0000     
     19     (3,1,4)               0.0000       0.0000       0.0000       0.0000       0.0000       0.0000       0.0000       0.0000       0.0000     
     20     (3,1,5)               0.0000       0.0000       0.0000       0.0000       0.0000       0.0000       0.0000       0.0000       0.0000     
     21     (3,1,6)               0.0000       0.0000       0.0000       0.0000       0.0000       0.0000       0.0000       0.0000       0.0000     
     22     (3,1,7)               0.0000       0.0000       0.0000       0.0000       0.0000       0.0000       0.0000       0.0000       0.0000     
     23     (3,1,8)               0.0000       0.0000       0.0000       0.0000       0.0000       0.0000       0.0000       0.0000       0.0000     
     24     (3,1,9)               0.0000       0.0000       0.0000       0.0000       0.0000       0.0000       0.0000       0.0000       0.0000     
 ----------------------------------------------------------------------------------------------------------------------------------------------------


1
  HEAD IN LAYER   1 AT END OF TIME STEP   4 IN STRESS PERIOD    3
  ---------------------------------------------------------------------------

            1           2           3           4           5           6           7           8           9          10
 ........................................................................................................................
   1   -25.00      -25.00      -25.00      -25.00      -25.00      -25.00      -25.00      -25.00      -25.00      -25.00    
1
  HEAD IN LAYER   2 AT END OF TIME STEP   4 IN STRESS PERIOD    3
  ---------------------------------------------------------------------------

            1           2           3           4           5           6           7           8           9          10
 ........................................................................................................................
   1   -25.00      -25.00      -25.00      -25.00      -25.00      -25.00      -25.00      -25.00      -25.00      -25.00    
1
  HEAD IN LAYER   3 AT END OF TIME STEP   4 IN STRESS PERIOD    3
  ---------------------------------------------------------------------------

            1           2           3           4           5           6           7           8           9          10
 ........................................................................................................................
   1   -25.00      -25.00      -25.00      -25.00      -25.00      -25.00      -25.00      -25.00      -25.00      -25.00    

 HEAD WILL BE SAVED ON UNIT 1022 AT END OF TIME STEP    4, STRESS PERIOD    3


  UZF-1 BUDGET FOR ENTIRE MODEL AT END OF TIME STEP    4, STRESS PERIOD   3
  ------------------------------------------------------------------------------

     CUMULATIVE UZF-1      L**3       RATES FOR THIS TIME STEP      L**3/T
     ------------------                 ------------------------

           IN:                                      IN:
           ---                                      ---
                 GWF =           0.0000                   GWF =           0.0000
        INFILTRATION =      384000.0000          INFILTRATION =        8000.0000
             REJ-INF =           0.0000               REJ-INF =           0.0000
                UZET =           0.0000                  UZET =           0.0000
             STORAGE =           0.0000               STORAGE =           0.0000

            TOTAL IN =      384000.0000              TOTAL IN =        8000.0000

          OUT:                                     OUT:
          ----                                     ----
                 GWF =           0.0000                   GWF =           0.0000
        INFILTRATION =           0.0000          INFILTRATION =           0.0000
             REJ-INF =           0.0000               REJ-INF =           0.0000
                UZET =          12.6288                  UZET =           0.4341
             STORAGE =      383987.3705               STORAGE =        7999.5656

           TOTAL OUT =      383999.9993             TOTAL OUT =        7999.9997

            IN - OUT =       6.7638E-04              IN - OUT =       3.3729E-04

 PERCENT DISCREPANCY =           0.00     PERCENT DISCREPANCY =           0.00



  VOLUME BUDGET FOR ENTIRE MODEL AT END OF TIME STEP    4, STRESS PERIOD   3
  ---------------------------------------------------------------------------------------------------

     CUMULATIVE VOLUME      L**3       RATES FOR THIS TIME STEP      L**3/T          PACKAGE NAME    
     ------------------                 ------------------------                     ----------------

           IN:                                      IN:
           ---                                      ---
              STO-SS =           0.0000                STO-SS =           0.0000     STORAGE         
              STO-SY =           0.0000                STO-SY =           0.0000     STORAGE         
                 CHD =           0.0000                   CHD =           0.0000     CHD-1           
           UZF-GWRCH =           0.0000             UZF-GWRCH =           0.0000     UZF-1           
             UZF-GWD =           0.0000               UZF-GWD =           0.0000     UZF-1           
            UZF-GWET =           0.0000              UZF-GWET =           0.0000     UZF-1           

            TOTAL IN =           0.0000              TOTAL IN =           0.0000

          OUT:                                     OUT:
          ----                                     ----
              STO-SS =           0.0000                STO-SS =           0.0000     STORAGE         
              STO-SY =           0.0000                STO-SY =           0.0000     STORAGE         
                 CHD =           0.0000                   CHD =           0.0000     CHD-1           
           UZF-GWRCH =           0.0000             UZF-GWRCH =           0.0000     UZF-1           
             UZF-GWD =           0.0000               UZF-GWD =           0.0000     UZF-1           
            UZF-GWET =           0.0000              UZF-GWET =           0.0000     UZF-1           

           TOTAL OUT =           0.0000             TOTAL OUT =           0.0000

            IN - OUT =           0.0000              IN - OUT =           0.0000

 PERCENT DISCREPANCY =           0.00     PERCENT DISCREPANCY =           0.00




         TIME SUMMARY AT END OF TIME STEP    4 IN STRESS PERIOD    3
                    SECONDS     MINUTES      HOURS       DAYS        YEARS
                    -----------------------------------------------------------
   TIME STEP LENGTH 1.72800E+05  2880.0      48.000      2.0000     5.47570E-03
 STRESS PERIOD TIME 6.91200E+05  11520.      192.00      8.0000     2.19028E-02
         TOTAL TIME 4.14720E+06  69120.      1152.0      48.000     0.13142    


end timestep


start timestep kper="3" kstp="5" mode="normal"

 UBDSV1 SAVING     FLOW-JA-FACE ON UNIT   1020 AT TIME STEP      5, STRESS PERIOD      3
 UBDSV06 SAVING     FLOW-JA-FACE IN MODEL GWF_1            PACKAGE UZF-1           CONNECTED TO MODEL GWF_1            PACKAGE UZF-1            ON UNIT   1014 AT TIME STEP      5, STRESS PERIOD      3
 UBDSV06 SAVING              GWF IN MODEL GWF_1            PACKAGE UZF-1           CONNECTED TO MODEL GWF_1            PACKAGE GWF_1            ON UNIT   1014 AT TIME STEP      5, STRESS PERIOD      3
 UBDSV06 SAVING     INFILTRATION IN MODEL GWF_1            PACKAGE UZF-1           CONNECTED TO MODEL GWF_1            PACKAGE UZF-1            ON UNIT   1014 AT TIME STEP      5, STRESS PERIOD      3
 UBDSV06 SAVING          REJ-INF IN MODEL GWF_1            PACKAGE UZF-1           CONNECTED TO MODEL GWF_1            PACKAGE UZF-1            ON UNIT   1014 AT TIME STEP      5, STRESS PERIOD      3
 UBDSV06 SAVING             UZET IN MODEL GWF_1            PACKAGE UZF-1           CONNECTED TO MODEL GWF_1            PACKAGE UZF-1            ON UNIT   1014 AT TIME STEP      5, STRESS PERIOD      3
 UBDSV06 SAVING          STORAGE IN MODEL GWF_1            PACKAGE UZF-1           CONNECTED TO MODEL GWF_1            PACKAGE UZF-1            ON UNIT   1014 AT TIME STEP      5, STRESS PERIOD      3

 CHD PACKAGE (CHD-1) FLOW RATES   PERIOD      3   STEP        5
 -----------------------------------------------
   NUMBER   CELLID                    RATE      
 -----------------------------------------------
     1      (3,1,1)               0.0000000     
     2      (3,1,10)              0.0000000     
 -----------------------------------------------




 UZF-GWRCH PACKAGE (UZF-1) FLOW RATES   PERIOD      3   STEP        5
 ----------------------------------------------------------------------------------------
   NUMBER   CELLID                    RATE       NAME                                    
 ----------------------------------------------------------------------------------------
     1      (1,1,2)               0.0000000      UZF01                                   
     2      (1,1,3)               0.0000000      UZF02                                   
     3      (1,1,4)               0.0000000      UZF03                                   
     4      (1,1,5)               0.0000000      UZF04                                   
     5      (1,1,6)               0.0000000      UZF05                                   
     6      (1,1,7)               0.0000000      UZF06                                   
     7      (1,1,8)               0.0000000      UZF07                                   
     8      (1,1,9)               0.0000000      UZF08                                   
     9      (2,1,2)               0.0000000      UZF08                                   
     10     (2,1,3)               0.0000000      UZF10                                   
     11     (2,1,4)               0.0000000      UZF11                                   
     12     (2,1,5)               0.0000000      UZF12                                   
     13     (2,1,6)               0.0000000      UZF13                                   
     14     (2,1,7)               0.0000000      UZF14                                   
     15     (2,1,8)               0.0000000      UZF15                                   
     16     (2,1,9)               0.0000000      UZF16                                   
     17     (3,1,2)               0.0000000      UZF17                                   
     18     (3,1,3)               0.0000000      UZF18                                   
     19     (3,1,4)               0.0000000      UZF19                                   
     20     (3,1,5)               0.0000000      UZF20                                   
     21     (3,1,6)               0.0000000      UZF21                                   
     22     (3,1,7)               0.0000000      UZF22                                   
     23     (3,1,8)               0.0000000      UZF23                                   
     24     (3,1,9)               0.0000000      UZF24                                   
 ----------------------------------------------------------------------------------------




 UZF-GWD PACKAGE (UZF-1) FLOW RATES   PERIOD      3   STEP        5
 ----------------------------------------------------------------------------------------
   NUMBER   CELLID                    RATE       NAME                                    
 ----------------------------------------------------------------------------------------
     1      (1,1,2)               0.0000000      UZF01                                   
     2      (1,1,3)               0.0000000      UZF02                                   
     3      (1,1,4)               0.0000000      UZF03                                   
     4      (1,1,5)               0.0000000      UZF04                                   
     5      (1,1,6)               0.0000000      UZF05                                   
     6      (1,1,7)               0.0000000      UZF06                                   
     7      (1,1,8)               0.0000000      UZF07                                   
     8      (1,1,9)               0.0000000      UZF08                                   
     9      (2,1,2)               0.0000000      UZF08                                   
     10     (2,1,3)               0.0000000      UZF10                                   
     11     (2,1,4)               0.0000000      UZF11                                   
     12     (2,1,5)               0.0000000      UZF12                                   
     13     (2,1,6)               0.0000000      UZF13                                   
     14     (2,1,7)               0.0000000      UZF14                                   
     15     (2,1,8)               0.0000000      UZF15                                   
     16     (2,1,9)               0.0000000      UZF16                                   
     17     (3,1,2)               0.0000000      UZF17                                   
     18     (3,1,3)               0.0000000      UZF18                                   
     19     (3,1,4)               0.0000000      UZF19                                   
     20     (3,1,5)               0.0000000      UZF20                                   
     21     (3,1,6)               0.0000000      UZF21                                   
     22     (3,1,7)               0.0000000      UZF22                                   
     23     (3,1,8)               0.0000000      UZF23                                   
     24     (3,1,9)               0.0000000      UZF24                                   
 ----------------------------------------------------------------------------------------




 UZF-GWET PACKAGE (UZF-1) FLOW RATES   PERIOD      3   STEP        5
 ----------------------------------------------------------------------------------------
   NUMBER   CELLID                    RATE       NAME                                    
 ----------------------------------------------------------------------------------------
     1      (1,1,2)               0.0000000      UZF01                                   
     2      (1,1,3)               0.0000000      UZF02                                   
     3      (1,1,4)               0.0000000      UZF03                                   
     4      (1,1,5)               0.0000000      UZF04                                   
     5      (1,1,6)               0.0000000      UZF05                                   
     6      (1,1,7)               0.0000000      UZF06                                   
     7      (1,1,8)               0.0000000      UZF07                                   
     8      (1,1,9)               0.0000000      UZF08                                   
     9      (2,1,2)               0.0000000      UZF08                                   
     10     (2,1,3)               0.0000000      UZF10                                   
     11     (2,1,4)               0.0000000      UZF11                                   
     12     (2,1,5)               0.0000000      UZF12                                   
     13     (2,1,6)               0.0000000      UZF13                                   
     14     (2,1,7)               0.0000000      UZF14                                   
     15     (2,1,8)               0.0000000      UZF15                                   
     16     (2,1,9)               0.0000000      UZF16                                   
     17     (3,1,2)               0.0000000      UZF17                                   
     18     (3,1,3)               0.0000000      UZF18                                   
     19     (3,1,4)               0.0000000      UZF19                                   
     20     (3,1,5)               0.0000000      UZF20                                   
     21     (3,1,6)               0.0000000      UZF21                                   
     22     (3,1,7)               0.0000000      UZF22                                   
     23     (3,1,8)               0.0000000      UZF23                                   
     24     (3,1,9)               0.0000000      UZF24                                   
 ----------------------------------------------------------------------------------------




 UZF-1 PACKAGE - SUMMARY OF FLOWS FOR EACH CONTROL VOLUME   PERIOD      3   STEP        5
 ----------------------------------------------------------------------------------------------------------------------------------------------------
                                                                                                                                           PERCENT   
   NUMBER   CELLID                  INFLOW      OUTFLOW        GWF      INFILTRATION   REJ INF        UZET       STORAGE      IN - OUT    DIFFERENCE 
 ----------------------------------------------------------------------------------------------------------------------------------------------------
     1      (1,1,2)               0.0000      -999.96       0.0000       1000.0       0.0000      -5.81088E-02  1.48674E-02  6.36646E-12  6.36637E-13
     2      (1,1,3)               0.0000      -999.96       0.0000       1000.0       0.0000      -5.81088E-02  1.48674E-02  6.36646E-12  6.36637E-13
     3      (1,1,4)               0.0000      -999.96       0.0000       1000.0       0.0000      -5.81088E-02  1.48674E-02  6.36646E-12  6.36637E-13
     4      (1,1,5)               0.0000      -999.96       0.0000       1000.0       0.0000      -5.81088E-02  1.48674E-02  6.36646E-12  6.36637E-13
     5      (1,1,6)               0.0000      -999.96       0.0000       1000.0       0.0000      -5.81088E-02  1.48674E-02  6.36646E-12  6.36637E-13
     6      (1,1,7)               0.0000      -999.96       0.0000       1000.0       0.0000      -5.81088E-02  1.48674E-02  6.36646E-12  6.36637E-13
     7      (1,1,8)               0.0000      -999.96       0.0000       1000.0       0.0000      -5.81088E-02  1.48674E-02  6.36646E-12  6.36637E-13
     8      (1,1,9)               0.0000      -999.96       0.0000       1000.0       0.0000      -5.81088E-02  1.48674E-02  6.36646E-12  6.36637E-13
     9      (2,1,2)               999.96       0.0000       0.0000       0.0000       0.0000      -2.15134E-03 -999.95      -1.70530E-12 -1.70538E-13
     10     (2,1,3)               999.96       0.0000       0.0000       0.0000       0.0000      -2.15134E-03 -999.95      -1.70530E-12 -1.70538E-13
     11     (2,1,4)               999.96       0.0000       0.0000       0.0000       0.0000      -2.15134E-03 -999.95      -1.70530E-12 -1.70538E-13
     12     (2,1,5)               999.96       0.0000       0.0000       0.0000       0.0000      -2.15134E-03 -999.95      -1.70530E-12 -1.70538E-13
     13     (2,1,6)               999.96       0.0000       0.0000       0.0000       0.0000      -2.15134E-03 -999.95      -1.70530E-12 -1.70538E-13
     14     (2,1,7)               999.96       0.0000       0.0000       0.0000       0.0000      -2.15134E-03 -999.95      -1.70530E-12 -1.70538E-13
     15     (2,1,8)               999.96       0.0000       0.0000       0.0000       0.0000      -2.15134E-03 -999.95      -1.70530E-12 -1.70538E-13
     16     (2,1,9)               999.96       0.0000       0.0000       0.0000       0.0000      -2.15134E-03 -999.95      -1.70530E-12 -1.70538E-13
     17     (3,1,2)               0.0000       0.0000       0.0000       0.0000       0.0000       0.0000       0.0000       0.0000       0.0000     
     18     (3,1,3)               0.0000       0.0000       0.0000       0.0000       0.0000       0.0000       0.0000       0.0000       0.0000     
     19     (3,1,4)               0.0000       0.0000       0.0000       0.0000       0.0000       0.0000       0.0000       0.0000       0.0000     
     20     (3,1,5)               0.0000       0.0000       0.0000       0.0000       0.0000       0.0000       0.0000       0.0000       0.0000     
     21     (3,1,6)               0.0000       0.0000       0.0000       0.0000       0.0000       0.0000       0.0000       0.0000       0.0000     
     22     (3,1,7)               0.0000       0.0000       0.0000       0.0000       0.0000       0.0000       0.0000       0.0000       0.0000     
     23     (3,1,8)               0.0000       0.0000       0.0000       0.0000       0.0000       0.0000       0.0000       0.0000       0.0000     
     24     (3,1,9)               0.0000       0.0000       0.0000       0.0000       0.0000       0.0000       0.0000       0.0000       0.0000     
 ----------------------------------------------------------------------------------------------------------------------------------------------------


1
  HEAD IN LAYER   1 AT END OF TIME STEP   5 IN STRESS PERIOD    3
  ---------------------------------------------------------------------------

            1           2           3           4           5           6           7           8           9          10
 ........................................................................................................................
   1   -25.00      -25.00      -25.00      -25.00      -25.00      -25.00      -25.00      -25.00      -25.00      -25.00    
1
  HEAD IN LAYER   2 AT END OF TIME STEP   5 IN STRESS PERIOD    3
  ---------------------------------------------------------------------------

            1           2           3           4           5           6           7           8           9          10
 ........................................................................................................................
   1   -25.00      -25.00      -25.00      -25.00      -25.00      -25.00      -25.00      -25.00      -25.00      -25.00    
1
  HEAD IN LAYER   3 AT END OF TIME STEP   5 IN STRESS PERIOD    3
  ---------------------------------------------------------------------------

            1           2           3           4           5           6           7           8           9          10
 ........................................................................................................................
   1   -25.00      -25.00      -25.00      -25.00      -25.00      -25.00      -25.00      -25.00      -25.00      -25.00    

 HEAD WILL BE SAVED ON UNIT 1022 AT END OF TIME STEP    5, STRESS PERIOD    3


  UZF-1 BUDGET FOR ENTIRE MODEL AT END OF TIME STEP    5, STRESS PERIOD   3
  ------------------------------------------------------------------------------

     CUMULATIVE UZF-1      L**3       RATES FOR THIS TIME STEP      L**3/T
     ------------------                 ------------------------

           IN:                                      IN:
           ---                                      ---
                 GWF =           0.0000                   GWF =           0.0000
        INFILTRATION =      400000.0000          INFILTRATION =        8000.0000
             REJ-INF =           0.0000               REJ-INF =           0.0000
                UZET =           0.0000                  UZET =           0.0000
             STORAGE =           0.2379               STORAGE =           0.1189

            TOTAL IN =      400000.2379              TOTAL IN =        8000.1189

          OUT:                                     OUT:
          ----                                     ----
                 GWF =           0.0000                   GWF =           0.0000
        INFILTRATION =           0.0000          INFILTRATION =           0.0000
             REJ-INF =           0.0000               REJ-INF =           0.0000
                UZET =          13.5930                  UZET =           0.4821
             STORAGE =      399986.6442               STORAGE =        7999.6369

           TOTAL OUT =      400000.2372             TOTAL OUT =        8000.1189

            IN - OUT =       6.7638E-04              IN - OUT =       3.6380E-11

 PERCENT DISCREPANCY =           0.00     PERCENT DISCREPANCY =           0.00



  VOLUME BUDGET FOR ENTIRE MODEL AT END OF TIME STEP    5, STRESS PERIOD   3
  ---------------------------------------------------------------------------------------------------

     CUMULATIVE VOLUME      L**3       RATES FOR THIS TIME STEP      L**3/T          PACKAGE NAME    
     ------------------                 ------------------------                     ----------------

           IN:                                      IN:
           ---                                      ---
              STO-SS =           0.0000                STO-SS =           0.0000     STORAGE         
              STO-SY =           0.0000                STO-SY =           0.0000     STORAGE         
                 CHD =           0.0000                   CHD =           0.0000     CHD-1           
           UZF-GWRCH =           0.0000             UZF-GWRCH =           0.0000     UZF-1           
             UZF-GWD =           0.0000               UZF-GWD =           0.0000     UZF-1           
            UZF-GWET =           0.0000              UZF-GWET =           0.0000     UZF-1           

            TOTAL IN =           0.0000              TOTAL IN =           0.0000

          OUT:                                     OUT:
          ----                                     ----
              STO-SS =           0.0000                STO-SS =           0.0000     STORAGE         
              STO-SY =           0.0000                STO-SY =           0.0000     STORAGE         
                 CHD =           0.0000                   CHD =           0.0000     CHD-1           
           UZF-GWRCH =           0.0000             UZF-GWRCH =           0.0000     UZF-1           
             UZF-GWD =           0.0000               UZF-GWD =           0.0000     UZF-1           
            UZF-GWET =           0.0000              UZF-GWET =           0.0000     UZF-1           

           TOTAL OUT =           0.0000             TOTAL OUT =           0.0000

            IN - OUT =           0.0000              IN - OUT =           0.0000

 PERCENT DISCREPANCY =           0.00     PERCENT DISCREPANCY =           0.00




         TIME SUMMARY AT END OF TIME STEP    5 IN STRESS PERIOD    3
                    SECONDS     MINUTES      HOURS       DAYS        YEARS
                    -----------------------------------------------------------
   TIME STEP LENGTH 1.72800E+05  2880.0      48.000      2.0000     5.47570E-03
 STRESS PERIOD TIME 8.64000E+05  14400.      240.00      10.000     2.73785E-02
         TOTAL TIME 4.32000E+06  72000.      1200.0      50.000     0.13689    


end timestep


start timestep kper="3" kstp="6" mode="normal"

 UBDSV1 SAVING     FLOW-JA-FACE ON UNIT   1020 AT TIME STEP      6, STRESS PERIOD      3
 UBDSV06 SAVING     FLOW-JA-FACE IN MODEL GWF_1            PACKAGE UZF-1           CONNECTED TO MODEL GWF_1            PACKAGE UZF-1            ON UNIT   1014 AT TIME STEP      6, STRESS PERIOD      3
 UBDSV06 SAVING              GWF IN MODEL GWF_1            PACKAGE UZF-1           CONNECTED TO MODEL GWF_1            PACKAGE GWF_1            ON UNIT   1014 AT TIME STEP      6, STRESS PERIOD      3
 UBDSV06 SAVING     INFILTRATION IN MODEL GWF_1            PACKAGE UZF-1           CONNECTED TO MODEL GWF_1            PACKAGE UZF-1            ON UNIT   1014 AT TIME STEP      6, STRESS PERIOD      3
 UBDSV06 SAVING          REJ-INF IN MODEL GWF_1            PACKAGE UZF-1           CONNECTED TO MODEL GWF_1            PACKAGE UZF-1            ON UNIT   1014 AT TIME STEP      6, STRESS PERIOD      3
 UBDSV06 SAVING             UZET IN MODEL GWF_1            PACKAGE UZF-1           CONNECTED TO MODEL GWF_1            PACKAGE UZF-1            ON UNIT   1014 AT TIME STEP      6, STRESS PERIOD      3
 UBDSV06 SAVING          STORAGE IN MODEL GWF_1            PACKAGE UZF-1           CONNECTED TO MODEL GWF_1            PACKAGE UZF-1            ON UNIT   1014 AT TIME STEP      6, STRESS PERIOD      3

 CHD PACKAGE (CHD-1) FLOW RATES   PERIOD      3   STEP        6
 -----------------------------------------------
   NUMBER   CELLID                    RATE      
 -----------------------------------------------
     1      (3,1,1)               0.0000000     
     2      (3,1,10)              0.0000000     
 -----------------------------------------------




 UZF-GWRCH PACKAGE (UZF-1) FLOW RATES   PERIOD      3   STEP        6
 ----------------------------------------------------------------------------------------
   NUMBER   CELLID                    RATE       NAME                                    
 ----------------------------------------------------------------------------------------
     1      (1,1,2)               0.0000000      UZF01                                   
     2      (1,1,3)               0.0000000      UZF02                                   
     3      (1,1,4)               0.0000000      UZF03                                   
     4      (1,1,5)               0.0000000      UZF04                                   
     5      (1,1,6)               0.0000000      UZF05                                   
     6      (1,1,7)               0.0000000      UZF06                                   
     7      (1,1,8)               0.0000000      UZF07                                   
     8      (1,1,9)               0.0000000      UZF08                                   
     9      (2,1,2)               0.0000000      UZF08                                   
     10     (2,1,3)               0.0000000      UZF10                                   
     11     (2,1,4)               0.0000000      UZF11                                   
     12     (2,1,5)               0.0000000      UZF12                                   
     13     (2,1,6)               0.0000000      UZF13                                   
     14     (2,1,7)               0.0000000      UZF14                                   
     15     (2,1,8)               0.0000000      UZF15                                   
     16     (2,1,9)               0.0000000      UZF16                                   
     17     (3,1,2)               0.0000000      UZF17                                   
     18     (3,1,3)               0.0000000      UZF18                                   
     19     (3,1,4)               0.0000000      UZF19                                   
     20     (3,1,5)               0.0000000      UZF20                                   
     21     (3,1,6)               0.0000000      UZF21                                   
     22     (3,1,7)               0.0000000      UZF22                                   
     23     (3,1,8)               0.0000000      UZF23                                   
     24     (3,1,9)               0.0000000      UZF24                                   
 ----------------------------------------------------------------------------------------




 UZF-GWD PACKAGE (UZF-1) FLOW RATES   PERIOD      3   STEP        6
 ----------------------------------------------------------------------------------------
   NUMBER   CELLID                    RATE       NAME                                    
 ----------------------------------------------------------------------------------------
     1      (1,1,2)               0.0000000      UZF01                                   
     2      (1,1,3)               0.0000000      UZF02                                   
     3      (1,1,4)               0.0000000      UZF03                                   
     4      (1,1,5)               0.0000000      UZF04                                   
     5      (1,1,6)               0.0000000      UZF05                                   
     6      (1,1,7)               0.0000000      UZF06                                   
     7      (1,1,8)               0.0000000      UZF07                                   
     8      (1,1,9)               0.0000000      UZF08                                   
     9      (2,1,2)               0.0000000      UZF08                                   
     10     (2,1,3)               0.0000000      UZF10                                   
     11     (2,1,4)               0.0000000      UZF11                                   
     12     (2,1,5)               0.0000000      UZF12                                   
     13     (2,1,6)               0.0000000      UZF13                                   
     14     (2,1,7)               0.0000000      UZF14                                   
     15     (2,1,8)               0.0000000      UZF15                                   
     16     (2,1,9)               0.0000000      UZF16                                   
     17     (3,1,2)               0.0000000      UZF17                                   
     18     (3,1,3)               0.0000000      UZF18                                   
     19     (3,1,4)               0.0000000      UZF19                                   
     20     (3,1,5)               0.0000000      UZF20                                   
     21     (3,1,6)               0.0000000      UZF21                                   
     22     (3,1,7)               0.0000000      UZF22                                   
     23     (3,1,8)               0.0000000      UZF23                                   
     24     (3,1,9)               0.0000000      UZF24                                   
 ----------------------------------------------------------------------------------------




 UZF-GWET PACKAGE (UZF-1) FLOW RATES   PERIOD      3   STEP        6
 ----------------------------------------------------------------------------------------
   NUMBER   CELLID                    RATE       NAME                                    
 ----------------------------------------------------------------------------------------
     1      (1,1,2)               0.0000000      UZF01                                   
     2      (1,1,3)               0.0000000      UZF02                                   
     3      (1,1,4)               0.0000000      UZF03                                   
     4      (1,1,5)               0.0000000      UZF04                                   
     5      (1,1,6)               0.0000000      UZF05                                   
     6      (1,1,7)               0.0000000      UZF06                                   
     7      (1,1,8)               0.0000000      UZF07                                   
     8      (1,1,9)               0.0000000      UZF08                                   
     9      (2,1,2)               0.0000000      UZF08                                   
     10     (2,1,3)               0.0000000      UZF10                                   
     11     (2,1,4)               0.0000000      UZF11                                   
     12     (2,1,5)               0.0000000      UZF12                                   
     13     (2,1,6)               0.0000000      UZF13                                   
     14     (2,1,7)               0.0000000      UZF14                                   
     15     (2,1,8)               0.0000000      UZF15                                   
     16     (2,1,9)               0.0000000      UZF16                                   
     17     (3,1,2)               0.0000000      UZF17                                   
     18     (3,1,3)               0.0000000      UZF18                                   
     19     (3,1,4)               0.0000000      UZF19                                   
     20     (3,1,5)               0.0000000      UZF20                                   
     21     (3,1,6)               0.0000000      UZF21                                   
     22     (3,1,7)               0.0000000      UZF22                                   
     23     (3,1,8)               0.0000000      UZF23                                   
     24     (3,1,9)               0.0000000      UZF24                                   
 ----------------------------------------------------------------------------------------




 UZF-1 PACKAGE - SUMMARY OF FLOWS FOR EACH CONTROL VOLUME   PERIOD      3   STEP        6
 ----------------------------------------------------------------------------------------------------------------------------------------------------
                                                                                                                                           PERCENT   
   NUMBER   CELLID                  INFLOW      OUTFLOW        GWF      INFILTRATION   REJ INF        UZET       STORAGE      IN - OUT    DIFFERENCE 
 ----------------------------------------------------------------------------------------------------------------------------------------------------
     1      (1,1,2)               0.0000      -999.97       0.0000       1000.0       0.0000      -6.37305E-02  3.00000E-02 -1.13687E-12 -1.13683E-13
     2      (1,1,3)               0.0000      -999.97       0.0000       1000.0       0.0000      -6.37305E-02  3.00000E-02 -1.13687E-12 -1.13683E-13
     3      (1,1,4)               0.0000      -999.97       0.0000       1000.0       0.0000      -6.37305E-02  3.00000E-02 -1.13687E-12 -1.13683E-13
     4      (1,1,5)               0.0000      -999.97       0.0000       1000.0       0.0000      -6.37305E-02  3.00000E-02 -1.13687E-12 -1.13683E-13
     5      (1,1,6)               0.0000      -999.97       0.0000       1000.0       0.0000      -6.37305E-02  3.00000E-02 -1.13687E-12 -1.13683E-13
     6      (1,1,7)               0.0000      -999.97       0.0000       1000.0       0.0000      -6.37305E-02  3.00000E-02 -1.13687E-12 -1.13683E-13
     7      (1,1,8)               0.0000      -999.97       0.0000       1000.0       0.0000      -6.37305E-02  3.00000E-02 -1.13687E-12 -1.13683E-13
     8      (1,1,9)               0.0000      -999.97       0.0000       1000.0       0.0000      -6.37305E-02  3.00000E-02 -1.13687E-12 -1.13683E-13
     9      (2,1,2)               999.97       0.0000       0.0000       0.0000       0.0000      -1.42382E-02 -999.95       1.59162E-12  1.59167E-13
     10     (2,1,3)               999.97       0.0000       0.0000       0.0000       0.0000      -1.42382E-02 -999.95       1.59162E-12  1.59167E-13
     11     (2,1,4)               999.97       0.0000       0.0000       0.0000       0.0000      -1.42382E-02 -999.95       1.59162E-12  1.59167E-13
     12     (2,1,5)               999.97       0.0000       0.0000       0.0000       0.0000      -1.42382E-02 -999.95       1.59162E-12  1.59167E-13
     13     (2,1,6)               999.97       0.0000       0.0000       0.0000       0.0000      -1.42382E-02 -999.95       1.59162E-12  1.59167E-13
     14     (2,1,7)               999.97       0.0000       0.0000       0.0000       0.0000      -1.42382E-02 -999.95       1.59162E-12  1.59167E-13
     15     (2,1,8)               999.97       0.0000       0.0000       0.0000       0.0000      -1.42382E-02 -999.95       1.59162E-12  1.59167E-13
     16     (2,1,9)               999.97       0.0000       0.0000       0.0000       0.0000      -1.42382E-02 -999.95       1.59162E-12  1.59167E-13
     17     (3,1,2)               0.0000       0.0000       0.0000       0.0000       0.0000       0.0000       0.0000       0.0000       0.0000     
     18     (3,1,3)               0.0000       0.0000       0.0000       0.0000       0.0000       0.0000       0.0000       0.0000       0.0000     
     19     (3,1,4)               0.0000       0.0000       0.0000       0.0000       0.0000       0.0000       0.0000       0.0000       0.0000     
     20     (3,1,5)               0.0000       0.0000       0.0000       0.0000       0.0000       0.0000       0.0000       0.0000       0.0000     
     21     (3,1,6)               0.0000       0.0000       0.0000       0.0000       0.0000       0.0000       0.0000       0.0000       0.0000     
     22     (3,1,7)               0.0000       0.0000       0.0000       0.0000       0.0000       0.0000       0.0000       0.0000       0.0000     
     23     (3,1,8)               0.0000       0.0000       0.0000       0.0000       0.0000       0.0000       0.0000       0.0000       0.0000     
     24     (3,1,9)               0.0000       0.0000       0.0000       0.0000       0.0000       0.0000       0.0000       0.0000       0.0000     
 ----------------------------------------------------------------------------------------------------------------------------------------------------


1
  HEAD IN LAYER   1 AT END OF TIME STEP   6 IN STRESS PERIOD    3
  ---------------------------------------------------------------------------

            1           2           3           4           5           6           7           8           9          10
 ........................................................................................................................
   1   -25.00      -25.00      -25.00      -25.00      -25.00      -25.00      -25.00      -25.00      -25.00      -25.00    
1
  HEAD IN LAYER   2 AT END OF TIME STEP   6 IN STRESS PERIOD    3
  ---------------------------------------------------------------------------

            1           2           3           4           5           6           7           8           9          10
 ........................................................................................................................
   1   -25.00      -25.00      -25.00      -25.00      -25.00      -25.00      -25.00      -25.00      -25.00      -25.00    
1
  HEAD IN LAYER   3 AT END OF TIME STEP   6 IN STRESS PERIOD    3
  ---------------------------------------------------------------------------

            1           2           3           4           5           6           7           8           9          10
 ........................................................................................................................
   1   -25.00      -25.00      -25.00      -25.00      -25.00      -25.00      -25.00      -25.00      -25.00      -25.00    

 HEAD WILL BE SAVED ON UNIT 1022 AT END OF TIME STEP    6, STRESS PERIOD    3


  UZF-1 BUDGET FOR ENTIRE MODEL AT END OF TIME STEP    6, STRESS PERIOD   3
  ------------------------------------------------------------------------------

     CUMULATIVE UZF-1      L**3       RATES FOR THIS TIME STEP      L**3/T
     ------------------                 ------------------------

           IN:                                      IN:
           ---                                      ---
                 GWF =           0.0000                   GWF =           0.0000
        INFILTRATION =      416000.0000          INFILTRATION =        8000.0000
             REJ-INF =           0.0000               REJ-INF =           0.0000
                UZET =           0.0000                  UZET =           0.0000
             STORAGE =           0.7179               STORAGE =           0.2400

            TOTAL IN =      416000.7179              TOTAL IN =        8000.2400

          OUT:                                     OUT:
          ----                                     ----
                 GWF =           0.0000                   GWF =           0.0000
        INFILTRATION =           0.0000          INFILTRATION =           0.0000
             REJ-INF =           0.0000               REJ-INF =           0.0000
                UZET =          14.8405                  UZET =           0.6238
             STORAGE =      415985.8767               STORAGE =        7999.6162

           TOTAL OUT =      416000.7172             TOTAL OUT =        8000.2400

            IN - OUT =       6.7638E-04              IN - OUT =       3.6380E-12

 PERCENT DISCREPANCY =           0.00     PERCENT DISCREPANCY =           0.00



  VOLUME BUDGET FOR ENTIRE MODEL AT END OF TIME STEP    6, STRESS PERIOD   3
  ---------------------------------------------------------------------------------------------------

     CUMULATIVE VOLUME      L**3       RATES FOR THIS TIME STEP      L**3/T          PACKAGE NAME    
     ------------------                 ------------------------                     ----------------

           IN:                                      IN:
           ---                                      ---
              STO-SS =           0.0000                STO-SS =           0.0000     STORAGE         
              STO-SY =           0.0000                STO-SY =           0.0000     STORAGE         
                 CHD =           0.0000                   CHD =           0.0000     CHD-1           
           UZF-GWRCH =           0.0000             UZF-GWRCH =           0.0000     UZF-1           
             UZF-GWD =           0.0000               UZF-GWD =           0.0000     UZF-1           
            UZF-GWET =           0.0000              UZF-GWET =           0.0000     UZF-1           

            TOTAL IN =           0.0000              TOTAL IN =           0.0000

          OUT:                                     OUT:
          ----                                     ----
              STO-SS =           0.0000                STO-SS =           0.0000     STORAGE         
              STO-SY =           0.0000                STO-SY =           0.0000     STORAGE         
                 CHD =           0.0000                   CHD =           0.0000     CHD-1           
           UZF-GWRCH =           0.0000             UZF-GWRCH =           0.0000     UZF-1           
             UZF-GWD =           0.0000               UZF-GWD =           0.0000     UZF-1           
            UZF-GWET =           0.0000              UZF-GWET =           0.0000     UZF-1           

           TOTAL OUT =           0.0000             TOTAL OUT =           0.0000

            IN - OUT =           0.0000              IN - OUT =           0.0000

 PERCENT DISCREPANCY =           0.00     PERCENT DISCREPANCY =           0.00




         TIME SUMMARY AT END OF TIME STEP    6 IN STRESS PERIOD    3
                    SECONDS     MINUTES      HOURS       DAYS        YEARS
                    -----------------------------------------------------------
   TIME STEP LENGTH 1.72800E+05  2880.0      48.000      2.0000     5.47570E-03
 STRESS PERIOD TIME 1.03680E+06  17280.      288.00      12.000     3.28542E-02
         TOTAL TIME 4.49280E+06  74880.      1248.0      52.000     0.14237    


end timestep


start timestep kper="3" kstp="7" mode="normal"

 UBDSV1 SAVING     FLOW-JA-FACE ON UNIT   1020 AT TIME STEP      7, STRESS PERIOD      3
 UBDSV06 SAVING     FLOW-JA-FACE IN MODEL GWF_1            PACKAGE UZF-1           CONNECTED TO MODEL GWF_1            PACKAGE UZF-1            ON UNIT   1014 AT TIME STEP      7, STRESS PERIOD      3
 UBDSV06 SAVING              GWF IN MODEL GWF_1            PACKAGE UZF-1           CONNECTED TO MODEL GWF_1            PACKAGE GWF_1            ON UNIT   1014 AT TIME STEP      7, STRESS PERIOD      3
 UBDSV06 SAVING     INFILTRATION IN MODEL GWF_1            PACKAGE UZF-1           CONNECTED TO MODEL GWF_1            PACKAGE UZF-1            ON UNIT   1014 AT TIME STEP      7, STRESS PERIOD      3
 UBDSV06 SAVING          REJ-INF IN MODEL GWF_1            PACKAGE UZF-1           CONNECTED TO MODEL GWF_1            PACKAGE UZF-1            ON UNIT   1014 AT TIME STEP      7, STRESS PERIOD      3
 UBDSV06 SAVING             UZET IN MODEL GWF_1            PACKAGE UZF-1           CONNECTED TO MODEL GWF_1            PACKAGE UZF-1            ON UNIT   1014 AT TIME STEP      7, STRESS PERIOD      3
 UBDSV06 SAVING          STORAGE IN MODEL GWF_1            PACKAGE UZF-1           CONNECTED TO MODEL GWF_1            PACKAGE UZF-1            ON UNIT   1014 AT TIME STEP      7, STRESS PERIOD      3

 CHD PACKAGE (CHD-1) FLOW RATES   PERIOD      3   STEP        7
 -----------------------------------------------
   NUMBER   CELLID                    RATE      
 -----------------------------------------------
     1      (3,1,1)               0.0000000     
     2      (3,1,10)              0.0000000     
 -----------------------------------------------




 UZF-GWRCH PACKAGE (UZF-1) FLOW RATES   PERIOD      3   STEP        7
 ----------------------------------------------------------------------------------------
   NUMBER   CELLID                    RATE       NAME                                    
 ----------------------------------------------------------------------------------------
     1      (1,1,2)               0.0000000      UZF01                                   
     2      (1,1,3)               0.0000000      UZF02                                   
     3      (1,1,4)               0.0000000      UZF03                                   
     4      (1,1,5)               0.0000000      UZF04                                   
     5      (1,1,6)               0.0000000      UZF05                                   
     6      (1,1,7)               0.0000000      UZF06                                   
     7      (1,1,8)               0.0000000      UZF07                                   
     8      (1,1,9)               0.0000000      UZF08                                   
     9      (2,1,2)               0.0000000      UZF08                                   
     10     (2,1,3)               0.0000000      UZF10                                   
     11     (2,1,4)               0.0000000      UZF11                                   
     12     (2,1,5)               0.0000000      UZF12                                   
     13     (2,1,6)               0.0000000      UZF13                                   
     14     (2,1,7)               0.0000000      UZF14                                   
     15     (2,1,8)               0.0000000      UZF15                                   
     16     (2,1,9)               0.0000000      UZF16                                   
     17     (3,1,2)               0.0000000      UZF17                                   
     18     (3,1,3)               0.0000000      UZF18                                   
     19     (3,1,4)               0.0000000      UZF19                                   
     20     (3,1,5)               0.0000000      UZF20                                   
     21     (3,1,6)               0.0000000      UZF21                                   
     22     (3,1,7)               0.0000000      UZF22                                   
     23     (3,1,8)               0.0000000      UZF23                                   
     24     (3,1,9)               0.0000000      UZF24                                   
 ----------------------------------------------------------------------------------------




 UZF-GWD PACKAGE (UZF-1) FLOW RATES   PERIOD      3   STEP        7
 ----------------------------------------------------------------------------------------
   NUMBER   CELLID                    RATE       NAME                                    
 ----------------------------------------------------------------------------------------
     1      (1,1,2)               0.0000000      UZF01                                   
     2      (1,1,3)               0.0000000      UZF02                                   
     3      (1,1,4)               0.0000000      UZF03                                   
     4      (1,1,5)               0.0000000      UZF04                                   
     5      (1,1,6)               0.0000000      UZF05                                   
     6      (1,1,7)               0.0000000      UZF06                                   
     7      (1,1,8)               0.0000000      UZF07                                   
     8      (1,1,9)               0.0000000      UZF08                                   
     9      (2,1,2)               0.0000000      UZF08                                   
     10     (2,1,3)               0.0000000      UZF10                                   
     11     (2,1,4)               0.0000000      UZF11                                   
     12     (2,1,5)               0.0000000      UZF12                                   
     13     (2,1,6)               0.0000000      UZF13                                   
     14     (2,1,7)               0.0000000      UZF14                                   
     15     (2,1,8)               0.0000000      UZF15                                   
     16     (2,1,9)               0.0000000      UZF16                                   
     17     (3,1,2)               0.0000000      UZF17                                   
     18     (3,1,3)               0.0000000      UZF18                                   
     19     (3,1,4)               0.0000000      UZF19                                   
     20     (3,1,5)               0.0000000      UZF20                                   
     21     (3,1,6)               0.0000000      UZF21                                   
     22     (3,1,7)               0.0000000      UZF22                                   
     23     (3,1,8)               0.0000000      UZF23                                   
     24     (3,1,9)               0.0000000      UZF24                                   
 ----------------------------------------------------------------------------------------




 UZF-GWET PACKAGE (UZF-1) FLOW RATES   PERIOD      3   STEP        7
 ----------------------------------------------------------------------------------------
   NUMBER   CELLID                    RATE       NAME                                    
 ----------------------------------------------------------------------------------------
     1      (1,1,2)               0.0000000      UZF01                                   
     2      (1,1,3)               0.0000000      UZF02                                   
     3      (1,1,4)               0.0000000      UZF03                                   
     4      (1,1,5)               0.0000000      UZF04                                   
     5      (1,1,6)               0.0000000      UZF05                                   
     6      (1,1,7)               0.0000000      UZF06                                   
     7      (1,1,8)               0.0000000      UZF07                                   
     8      (1,1,9)               0.0000000      UZF08                                   
     9      (2,1,2)               0.0000000      UZF08                                   
     10     (2,1,3)               0.0000000      UZF10                                   
     11     (2,1,4)               0.0000000      UZF11                                   
     12     (2,1,5)               0.0000000      UZF12                                   
     13     (2,1,6)               0.0000000      UZF13                                   
     14     (2,1,7)               0.0000000      UZF14                                   
     15     (2,1,8)               0.0000000      UZF15                                   
     16     (2,1,9)               0.0000000      UZF16                                   
     17     (3,1,2)               0.0000000      UZF17                                   
     18     (3,1,3)               0.0000000      UZF18                                   
     19     (3,1,4)               0.0000000      UZF19                                   
     20     (3,1,5)               0.0000000      UZF20                                   
     21     (3,1,6)               0.0000000      UZF21                                   
     22     (3,1,7)               0.0000000      UZF22                                   
     23     (3,1,8)               0.0000000      UZF23                                   
     24     (3,1,9)               0.0000000      UZF24                                   
 ----------------------------------------------------------------------------------------




 UZF-1 PACKAGE - SUMMARY OF FLOWS FOR EACH CONTROL VOLUME   PERIOD      3   STEP        7
 ----------------------------------------------------------------------------------------------------------------------------------------------------
                                                                                                                                           PERCENT   
   NUMBER   CELLID                  INFLOW      OUTFLOW        GWF      INFILTRATION   REJ INF        UZET       STORAGE      IN - OUT    DIFFERENCE 
 ----------------------------------------------------------------------------------------------------------------------------------------------------
     1      (1,1,2)               0.0000      -999.96       0.0000       1000.0       0.0000      -6.93522E-02  3.00000E-02  1.59162E-12  1.59157E-13
     2      (1,1,3)               0.0000      -999.96       0.0000       1000.0       0.0000      -6.93522E-02  3.00000E-02  1.59162E-12  1.59157E-13
     3      (1,1,4)               0.0000      -999.96       0.0000       1000.0       0.0000      -6.93522E-02  3.00000E-02  1.59162E-12  1.59157E-13
     4      (1,1,5)               0.0000      -999.96       0.0000       1000.0       0.0000      -6.93522E-02  3.00000E-02  1.59162E-12  1.59157E-13
     5      (1,1,6)               0.0000      -999.96       0.0000       1000.0       0.0000      -6.93522E-02  3.00000E-02  1.59162E-12  1.59157E-13
     6      (1,1,7)               0.0000      -999.96       0.0000       1000.0       0.0000      -6.93522E-02  3.00000E-02  1.59162E-12  1.59157E-13
     7      (1,1,8)               0.0000      -999.96       0.0000       1000.0       0.0000      -6.93522E-02  3.00000E-02  1.59162E-12  1.59157E-13
     8      (1,1,9)               0.0000      -999.96       0.0000       1000.0       0.0000      -6.93522E-02  3.00000E-02  1.59162E-12  1.59157E-13
     9      (2,1,2)               999.96       0.0000       0.0000       0.0000       0.0000      -1.07185E-02 -999.95      -2.38742E-12 -2.38752E-13
     10     (2,1,3)               999.96       0.0000       0.0000       0.0000       0.0000      -1.07185E-02 -999.95      -2.38742E-12 -2.38752E-13
     11     (2,1,4)               999.96       0.0000       0.0000       0.0000       0.0000      -1.07185E-02 -999.95      -2.38742E-12 -2.38752E-13
     12     (2,1,5)               999.96       0.0000       0.0000       0.0000       0.0000      -1.07185E-02 -999.95      -2.38742E-12 -2.38752E-13
     13     (2,1,6)               999.96       0.0000       0.0000       0.0000       0.0000      -1.07185E-02 -999.95      -2.38742E-12 -2.38752E-13
     14     (2,1,7)               999.96       0.0000       0.0000       0.0000       0.0000      -1.07185E-02 -999.95      -2.38742E-12 -2.38752E-13
     15     (2,1,8)               999.96       0.0000       0.0000       0.0000       0.0000      -1.07185E-02 -999.95      -2.38742E-12 -2.38752E-13
     16     (2,1,9)               999.96       0.0000       0.0000       0.0000       0.0000      -1.07185E-02 -999.95      -2.38742E-12 -2.38752E-13
     17     (3,1,2)               0.0000       0.0000       0.0000       0.0000       0.0000       0.0000       0.0000       0.0000       0.0000     
     18     (3,1,3)               0.0000       0.0000       0.0000       0.0000       0.0000       0.0000       0.0000       0.0000       0.0000     
     19     (3,1,4)               0.0000       0.0000       0.0000       0.0000       0.0000       0.0000       0.0000       0.0000       0.0000     
     20     (3,1,5)               0.0000       0.0000       0.0000       0.0000       0.0000       0.0000       0.0000       0.0000       0.0000     
     21     (3,1,6)               0.0000       0.0000       0.0000       0.0000       0.0000       0.0000       0.0000       0.0000       0.0000     
     22     (3,1,7)               0.0000       0.0000       0.0000       0.0000       0.0000       0.0000       0.0000       0.0000       0.0000     
     23     (3,1,8)               0.0000       0.0000       0.0000       0.0000       0.0000       0.0000       0.0000       0.0000       0.0000     
     24     (3,1,9)               0.0000       0.0000       0.0000       0.0000       0.0000       0.0000       0.0000       0.0000       0.0000     
 ----------------------------------------------------------------------------------------------------------------------------------------------------


1
  HEAD IN LAYER   1 AT END OF TIME STEP   7 IN STRESS PERIOD    3
  ---------------------------------------------------------------------------

            1           2           3           4           5           6           7           8           9          10
 ........................................................................................................................
   1   -25.00      -25.00      -25.00      -25.00      -25.00      -25.00      -25.00      -25.00      -25.00      -25.00    
1
  HEAD IN LAYER   2 AT END OF TIME STEP   7 IN STRESS PERIOD    3
  ---------------------------------------------------------------------------

            1           2           3           4           5           6           7           8           9          10
 ........................................................................................................................
   1   -25.00      -25.00      -25.00      -25.00      -25.00      -25.00      -25.00      -25.00      -25.00      -25.00    
1
  HEAD IN LAYER   3 AT END OF TIME STEP   7 IN STRESS PERIOD    3
  ---------------------------------------------------------------------------

            1           2           3           4           5           6           7           8           9          10
 ........................................................................................................................
   1   -25.00      -25.00      -25.00      -25.00      -25.00      -25.00      -25.00      -25.00      -25.00      -25.00    

 HEAD WILL BE SAVED ON UNIT 1022 AT END OF TIME STEP    7, STRESS PERIOD    3


  UZF-1 BUDGET FOR ENTIRE MODEL AT END OF TIME STEP    7, STRESS PERIOD   3
  ------------------------------------------------------------------------------

     CUMULATIVE UZF-1      L**3       RATES FOR THIS TIME STEP      L**3/T
     ------------------                 ------------------------

           IN:                                      IN:
           ---                                      ---
                 GWF =           0.0000                   GWF =           0.0000
        INFILTRATION =      432000.0000          INFILTRATION =        8000.0000
             REJ-INF =           0.0000               REJ-INF =           0.0000
                UZET =           0.0000                  UZET =           0.0000
             STORAGE =           1.1979               STORAGE =           0.2400

            TOTAL IN =      432001.1979              TOTAL IN =        8000.2400

          OUT:                                     OUT:
          ----                                     ----
                 GWF =           0.0000                   GWF =           0.0000
        INFILTRATION =           0.0000          INFILTRATION =           0.0000
             REJ-INF =           0.0000               REJ-INF =           0.0000
                UZET =          16.1216                  UZET =           0.6406
             STORAGE =      431985.0756               STORAGE =        7999.5994

           TOTAL OUT =      432001.1972             TOTAL OUT =        8000.2400

            IN - OUT =       6.7638E-04              IN - OUT =      -9.0949E-12

 PERCENT DISCREPANCY =           0.00     PERCENT DISCREPANCY =          -0.00



  VOLUME BUDGET FOR ENTIRE MODEL AT END OF TIME STEP    7, STRESS PERIOD   3
  ---------------------------------------------------------------------------------------------------

     CUMULATIVE VOLUME      L**3       RATES FOR THIS TIME STEP      L**3/T          PACKAGE NAME    
     ------------------                 ------------------------                     ----------------

           IN:                                      IN:
           ---                                      ---
              STO-SS =           0.0000                STO-SS =           0.0000     STORAGE         
              STO-SY =           0.0000                STO-SY =           0.0000     STORAGE         
                 CHD =           0.0000                   CHD =           0.0000     CHD-1           
           UZF-GWRCH =           0.0000             UZF-GWRCH =           0.0000     UZF-1           
             UZF-GWD =           0.0000               UZF-GWD =           0.0000     UZF-1           
            UZF-GWET =           0.0000              UZF-GWET =           0.0000     UZF-1           

            TOTAL IN =           0.0000              TOTAL IN =           0.0000

          OUT:                                     OUT:
          ----                                     ----
              STO-SS =           0.0000                STO-SS =           0.0000     STORAGE         
              STO-SY =           0.0000                STO-SY =           0.0000     STORAGE         
                 CHD =           0.0000                   CHD =           0.0000     CHD-1           
           UZF-GWRCH =           0.0000             UZF-GWRCH =           0.0000     UZF-1           
             UZF-GWD =           0.0000               UZF-GWD =           0.0000     UZF-1           
            UZF-GWET =           0.0000              UZF-GWET =           0.0000     UZF-1           

           TOTAL OUT =           0.0000             TOTAL OUT =           0.0000

            IN - OUT =           0.0000              IN - OUT =           0.0000

 PERCENT DISCREPANCY =           0.00     PERCENT DISCREPANCY =           0.00




         TIME SUMMARY AT END OF TIME STEP    7 IN STRESS PERIOD    3
                    SECONDS     MINUTES      HOURS       DAYS        YEARS
                    -----------------------------------------------------------
   TIME STEP LENGTH 1.72800E+05  2880.0      48.000      2.0000     5.47570E-03
 STRESS PERIOD TIME 1.20960E+06  20160.      336.00      14.000     3.83299E-02
         TOTAL TIME 4.66560E+06  77760.      1296.0      54.000     0.14784    


end timestep


start timestep kper="3" kstp="8" mode="normal"

 UBDSV1 SAVING     FLOW-JA-FACE ON UNIT   1020 AT TIME STEP      8, STRESS PERIOD      3
 UBDSV06 SAVING     FLOW-JA-FACE IN MODEL GWF_1            PACKAGE UZF-1           CONNECTED TO MODEL GWF_1            PACKAGE UZF-1            ON UNIT   1014 AT TIME STEP      8, STRESS PERIOD      3
 UBDSV06 SAVING              GWF IN MODEL GWF_1            PACKAGE UZF-1           CONNECTED TO MODEL GWF_1            PACKAGE GWF_1            ON UNIT   1014 AT TIME STEP      8, STRESS PERIOD      3
 UBDSV06 SAVING     INFILTRATION IN MODEL GWF_1            PACKAGE UZF-1           CONNECTED TO MODEL GWF_1            PACKAGE UZF-1            ON UNIT   1014 AT TIME STEP      8, STRESS PERIOD      3
 UBDSV06 SAVING          REJ-INF IN MODEL GWF_1            PACKAGE UZF-1           CONNECTED TO MODEL GWF_1            PACKAGE UZF-1            ON UNIT   1014 AT TIME STEP      8, STRESS PERIOD      3
 UBDSV06 SAVING             UZET IN MODEL GWF_1            PACKAGE UZF-1           CONNECTED TO MODEL GWF_1            PACKAGE UZF-1            ON UNIT   1014 AT TIME STEP      8, STRESS PERIOD      3
 UBDSV06 SAVING          STORAGE IN MODEL GWF_1            PACKAGE UZF-1           CONNECTED TO MODEL GWF_1            PACKAGE UZF-1            ON UNIT   1014 AT TIME STEP      8, STRESS PERIOD      3

 CHD PACKAGE (CHD-1) FLOW RATES   PERIOD      3   STEP        8
 -----------------------------------------------
   NUMBER   CELLID                    RATE      
 -----------------------------------------------
     1      (3,1,1)               0.0000000     
     2      (3,1,10)              0.0000000     
 -----------------------------------------------




 UZF-GWRCH PACKAGE (UZF-1) FLOW RATES   PERIOD      3   STEP        8
 ----------------------------------------------------------------------------------------
   NUMBER   CELLID                    RATE       NAME                                    
 ----------------------------------------------------------------------------------------
     1      (1,1,2)               0.0000000      UZF01                                   
     2      (1,1,3)               0.0000000      UZF02                                   
     3      (1,1,4)               0.0000000      UZF03                                   
     4      (1,1,5)               0.0000000      UZF04                                   
     5      (1,1,6)               0.0000000      UZF05                                   
     6      (1,1,7)               0.0000000      UZF06                                   
     7      (1,1,8)               0.0000000      UZF07                                   
     8      (1,1,9)               0.0000000      UZF08                                   
     9      (2,1,2)               0.0000000      UZF08                                   
     10     (2,1,3)               0.0000000      UZF10                                   
     11     (2,1,4)               0.0000000      UZF11                                   
     12     (2,1,5)               0.0000000      UZF12                                   
     13     (2,1,6)               0.0000000      UZF13                                   
     14     (2,1,7)               0.0000000      UZF14                                   
     15     (2,1,8)               0.0000000      UZF15                                   
     16     (2,1,9)               0.0000000      UZF16                                   
     17     (3,1,2)               0.0000000      UZF17                                   
     18     (3,1,3)               0.0000000      UZF18                                   
     19     (3,1,4)               0.0000000      UZF19                                   
     20     (3,1,5)               0.0000000      UZF20                                   
     21     (3,1,6)               0.0000000      UZF21                                   
     22     (3,1,7)               0.0000000      UZF22                                   
     23     (3,1,8)               0.0000000      UZF23                                   
     24     (3,1,9)               0.0000000      UZF24                                   
 ----------------------------------------------------------------------------------------




 UZF-GWD PACKAGE (UZF-1) FLOW RATES   PERIOD      3   STEP        8
 ----------------------------------------------------------------------------------------
   NUMBER   CELLID                    RATE       NAME                                    
 ----------------------------------------------------------------------------------------
     1      (1,1,2)               0.0000000      UZF01                                   
     2      (1,1,3)               0.0000000      UZF02                                   
     3      (1,1,4)               0.0000000      UZF03                                   
     4      (1,1,5)               0.0000000      UZF04                                   
     5      (1,1,6)               0.0000000      UZF05                                   
     6      (1,1,7)               0.0000000      UZF06                                   
     7      (1,1,8)               0.0000000      UZF07                                   
     8      (1,1,9)               0.0000000      UZF08                                   
     9      (2,1,2)               0.0000000      UZF08                                   
     10     (2,1,3)               0.0000000      UZF10                                   
     11     (2,1,4)               0.0000000      UZF11                                   
     12     (2,1,5)               0.0000000      UZF12                                   
     13     (2,1,6)               0.0000000      UZF13                                   
     14     (2,1,7)               0.0000000      UZF14                                   
     15     (2,1,8)               0.0000000      UZF15                                   
     16     (2,1,9)               0.0000000      UZF16                                   
     17     (3,1,2)               0.0000000      UZF17                                   
     18     (3,1,3)               0.0000000      UZF18                                   
     19     (3,1,4)               0.0000000      UZF19                                   
     20     (3,1,5)               0.0000000      UZF20                                   
     21     (3,1,6)               0.0000000      UZF21                                   
     22     (3,1,7)               0.0000000      UZF22                                   
     23     (3,1,8)               0.0000000      UZF23                                   
     24     (3,1,9)               0.0000000      UZF24                                   
 ----------------------------------------------------------------------------------------




 UZF-GWET PACKAGE (UZF-1) FLOW RATES   PERIOD      3   STEP        8
 ----------------------------------------------------------------------------------------
   NUMBER   CELLID                    RATE       NAME                                    
 ----------------------------------------------------------------------------------------
     1      (1,1,2)               0.0000000      UZF01                                   
     2      (1,1,3)               0.0000000      UZF02                                   
     3      (1,1,4)               0.0000000      UZF03                                   
     4      (1,1,5)               0.0000000      UZF04                                   
     5      (1,1,6)               0.0000000      UZF05                                   
     6      (1,1,7)               0.0000000      UZF06                                   
     7      (1,1,8)               0.0000000      UZF07                                   
     8      (1,1,9)               0.0000000      UZF08                                   
     9      (2,1,2)               0.0000000      UZF08                                   
     10     (2,1,3)               0.0000000      UZF10                                   
     11     (2,1,4)               0.0000000      UZF11                                   
     12     (2,1,5)               0.0000000      UZF12                                   
     13     (2,1,6)               0.0000000      UZF13                                   
     14     (2,1,7)               0.0000000      UZF14                                   
     15     (2,1,8)               0.0000000      UZF15                                   
     16     (2,1,9)               0.0000000      UZF16                                   
     17     (3,1,2)               0.0000000      UZF17                                   
     18     (3,1,3)               0.0000000      UZF18                                   
     19     (3,1,4)               0.0000000      UZF19                                   
     20     (3,1,5)               0.0000000      UZF20                                   
     21     (3,1,6)               0.0000000      UZF21                                   
     22     (3,1,7)               0.0000000      UZF22                                   
     23     (3,1,8)               0.0000000      UZF23                                   
     24     (3,1,9)               0.0000000      UZF24                                   
 ----------------------------------------------------------------------------------------




 UZF-1 PACKAGE - SUMMARY OF FLOWS FOR EACH CONTROL VOLUME   PERIOD      3   STEP        8
 ----------------------------------------------------------------------------------------------------------------------------------------------------
                                                                                                                                           PERCENT   
   NUMBER   CELLID                  INFLOW      OUTFLOW        GWF      INFILTRATION   REJ INF        UZET       STORAGE      IN - OUT    DIFFERENCE 
 ----------------------------------------------------------------------------------------------------------------------------------------------------
     1      (1,1,2)               0.0000      -999.96       0.0000       1000.0       0.0000      -3.00000E-02 -1.49739E-02 -4.77485E-12 -4.77485E-13
     2      (1,1,3)               0.0000      -999.96       0.0000       1000.0       0.0000      -3.00000E-02 -1.49739E-02 -4.77485E-12 -4.77485E-13
     3      (1,1,4)               0.0000      -999.96       0.0000       1000.0       0.0000      -3.00000E-02 -1.49739E-02 -4.77485E-12 -4.77485E-13
     4      (1,1,5)               0.0000      -999.96       0.0000       1000.0       0.0000      -3.00000E-02 -1.49739E-02 -4.77485E-12 -4.77485E-13
     5      (1,1,6)               0.0000      -999.96       0.0000       1000.0       0.0000      -3.00000E-02 -1.49739E-02 -4.77485E-12 -4.77485E-13
     6      (1,1,7)               0.0000      -999.96       0.0000       1000.0       0.0000      -3.00000E-02 -1.49739E-02 -4.77485E-12 -4.77485E-13
     7      (1,1,8)               0.0000      -999.96       0.0000       1000.0       0.0000      -3.00000E-02 -1.49739E-02 -4.77485E-12 -4.77485E-13
     8      (1,1,9)               0.0000      -999.96       0.0000       1000.0       0.0000      -3.00000E-02 -1.49739E-02 -4.77485E-12 -4.77485E-13
     9      (2,1,2)               999.96       0.0000       0.0000       0.0000       0.0000      -1.09306E-02 -999.94       2.50111E-12  2.50122E-13
     10     (2,1,3)               999.96       0.0000       0.0000       0.0000       0.0000      -1.09306E-02 -999.94       2.50111E-12  2.50122E-13
     11     (2,1,4)               999.96       0.0000       0.0000       0.0000       0.0000      -1.09306E-02 -999.94       2.50111E-12  2.50122E-13
     12     (2,1,5)               999.96       0.0000       0.0000       0.0000       0.0000      -1.09306E-02 -999.94       2.50111E-12  2.50122E-13
     13     (2,1,6)               999.96       0.0000       0.0000       0.0000       0.0000      -1.09306E-02 -999.94       2.50111E-12  2.50122E-13
     14     (2,1,7)               999.96       0.0000       0.0000       0.0000       0.0000      -1.09306E-02 -999.94       2.50111E-12  2.50122E-13
     15     (2,1,8)               999.96       0.0000       0.0000       0.0000       0.0000      -1.09306E-02 -999.94       2.50111E-12  2.50122E-13
     16     (2,1,9)               999.96       0.0000       0.0000       0.0000       0.0000      -1.09306E-02 -999.94       2.50111E-12  2.50122E-13
     17     (3,1,2)               0.0000       0.0000       0.0000       0.0000       0.0000       0.0000       0.0000       0.0000       0.0000     
     18     (3,1,3)               0.0000       0.0000       0.0000       0.0000       0.0000       0.0000       0.0000       0.0000       0.0000     
     19     (3,1,4)               0.0000       0.0000       0.0000       0.0000       0.0000       0.0000       0.0000       0.0000       0.0000     
     20     (3,1,5)               0.0000       0.0000       0.0000       0.0000       0.0000       0.0000       0.0000       0.0000       0.0000     
     21     (3,1,6)               0.0000       0.0000       0.0000       0.0000       0.0000       0.0000       0.0000       0.0000       0.0000     
     22     (3,1,7)               0.0000       0.0000       0.0000       0.0000       0.0000       0.0000       0.0000       0.0000       0.0000     
     23     (3,1,8)               0.0000       0.0000       0.0000       0.0000       0.0000       0.0000       0.0000       0.0000       0.0000     
     24     (3,1,9)               0.0000       0.0000       0.0000       0.0000       0.0000       0.0000       0.0000       0.0000       0.0000     
 ----------------------------------------------------------------------------------------------------------------------------------------------------


1
  HEAD IN LAYER   1 AT END OF TIME STEP   8 IN STRESS PERIOD    3
  ---------------------------------------------------------------------------

            1           2           3           4           5           6           7           8           9          10
 ........................................................................................................................
   1   -25.00      -25.00      -25.00      -25.00      -25.00      -25.00      -25.00      -25.00      -25.00      -25.00    
1
  HEAD IN LAYER   2 AT END OF TIME STEP   8 IN STRESS PERIOD    3
  ---------------------------------------------------------------------------

            1           2           3           4           5           6           7           8           9          10
 ........................................................................................................................
   1   -25.00      -25.00      -25.00      -25.00      -25.00      -25.00      -25.00      -25.00      -25.00      -25.00    
1
  HEAD IN LAYER   3 AT END OF TIME STEP   8 IN STRESS PERIOD    3
  ---------------------------------------------------------------------------

            1           2           3           4           5           6           7           8           9          10
 ........................................................................................................................
   1   -25.00      -25.00      -25.00      -25.00      -25.00      -25.00      -25.00      -25.00      -25.00      -25.00    

 HEAD WILL BE SAVED ON UNIT 1022 AT END OF TIME STEP    8, STRESS PERIOD    3


  UZF-1 BUDGET FOR ENTIRE MODEL AT END OF TIME STEP    8, STRESS PERIOD   3
  ------------------------------------------------------------------------------

     CUMULATIVE UZF-1      L**3       RATES FOR THIS TIME STEP      L**3/T
     ------------------                 ------------------------

           IN:                                      IN:
           ---                                      ---
                 GWF =           0.0000                   GWF =           0.0000
        INFILTRATION =      448000.0000          INFILTRATION =        8000.0000
             REJ-INF =           0.0000               REJ-INF =           0.0000
                UZET =           0.0000                  UZET =           0.0000
             STORAGE =           1.1979               STORAGE =           0.0000

            TOTAL IN =      448001.1979              TOTAL IN =        8000.0000

          OUT:                                     OUT:
          ----                                     ----
                 GWF =           0.0000                   GWF =           0.0000
        INFILTRATION =           0.0000          INFILTRATION =           0.0000
             REJ-INF =           0.0000               REJ-INF =           0.0000
                UZET =          16.7765                  UZET =           0.3274
             STORAGE =      447984.4207               STORAGE =        7999.6726

           TOTAL OUT =      448001.1972             TOTAL OUT =        8000.0000

            IN - OUT =       6.7638E-04              IN - OUT =      -1.7280E-11

 PERCENT DISCREPANCY =           0.00     PERCENT DISCREPANCY =          -0.00



  VOLUME BUDGET FOR ENTIRE MODEL AT END OF TIME STEP    8, STRESS PERIOD   3
  ---------------------------------------------------------------------------------------------------

     CUMULATIVE VOLUME      L**3       RATES FOR THIS TIME STEP      L**3/T          PACKAGE NAME    
     ------------------                 ------------------------                     ----------------

           IN:                                      IN:
           ---                                      ---
              STO-SS =           0.0000                STO-SS =           0.0000     STORAGE         
              STO-SY =           0.0000                STO-SY =           0.0000     STORAGE         
                 CHD =           0.0000                   CHD =           0.0000     CHD-1           
           UZF-GWRCH =           0.0000             UZF-GWRCH =           0.0000     UZF-1           
             UZF-GWD =           0.0000               UZF-GWD =           0.0000     UZF-1           
            UZF-GWET =           0.0000              UZF-GWET =           0.0000     UZF-1           

            TOTAL IN =           0.0000              TOTAL IN =           0.0000

          OUT:                                     OUT:
          ----                                     ----
              STO-SS =           0.0000                STO-SS =           0.0000     STORAGE         
              STO-SY =           0.0000                STO-SY =           0.0000     STORAGE         
                 CHD =           0.0000                   CHD =           0.0000     CHD-1           
           UZF-GWRCH =           0.0000             UZF-GWRCH =           0.0000     UZF-1           
             UZF-GWD =           0.0000               UZF-GWD =           0.0000     UZF-1           
            UZF-GWET =           0.0000              UZF-GWET =           0.0000     UZF-1           

           TOTAL OUT =           0.0000             TOTAL OUT =           0.0000

            IN - OUT =           0.0000              IN - OUT =           0.0000

 PERCENT DISCREPANCY =           0.00     PERCENT DISCREPANCY =           0.00




         TIME SUMMARY AT END OF TIME STEP    8 IN STRESS PERIOD    3
                    SECONDS     MINUTES      HOURS       DAYS        YEARS
                    -----------------------------------------------------------
   TIME STEP LENGTH 1.72800E+05  2880.0      48.000      2.0000     5.47570E-03
 STRESS PERIOD TIME 1.38240E+06  23040.      384.00      16.000     4.38056E-02
         TOTAL TIME 4.83840E+06  80640.      1344.0      56.000     0.15332    


end timestep


start timestep kper="3" kstp="9" mode="normal"

 UBDSV1 SAVING     FLOW-JA-FACE ON UNIT   1020 AT TIME STEP      9, STRESS PERIOD      3
 UBDSV06 SAVING     FLOW-JA-FACE IN MODEL GWF_1            PACKAGE UZF-1           CONNECTED TO MODEL GWF_1            PACKAGE UZF-1            ON UNIT   1014 AT TIME STEP      9, STRESS PERIOD      3
 UBDSV06 SAVING              GWF IN MODEL GWF_1            PACKAGE UZF-1           CONNECTED TO MODEL GWF_1            PACKAGE GWF_1            ON UNIT   1014 AT TIME STEP      9, STRESS PERIOD      3
 UBDSV06 SAVING     INFILTRATION IN MODEL GWF_1            PACKAGE UZF-1           CONNECTED TO MODEL GWF_1            PACKAGE UZF-1            ON UNIT   1014 AT TIME STEP      9, STRESS PERIOD      3
 UBDSV06 SAVING          REJ-INF IN MODEL GWF_1            PACKAGE UZF-1           CONNECTED TO MODEL GWF_1            PACKAGE UZF-1            ON UNIT   1014 AT TIME STEP      9, STRESS PERIOD      3
 UBDSV06 SAVING             UZET IN MODEL GWF_1            PACKAGE UZF-1           CONNECTED TO MODEL GWF_1            PACKAGE UZF-1            ON UNIT   1014 AT TIME STEP      9, STRESS PERIOD      3
 UBDSV06 SAVING          STORAGE IN MODEL GWF_1            PACKAGE UZF-1           CONNECTED TO MODEL GWF_1            PACKAGE UZF-1            ON UNIT   1014 AT TIME STEP      9, STRESS PERIOD      3

 CHD PACKAGE (CHD-1) FLOW RATES   PERIOD      3   STEP        9
 -----------------------------------------------
   NUMBER   CELLID                    RATE      
 -----------------------------------------------
     1      (3,1,1)               0.0000000     
     2      (3,1,10)              0.0000000     
 -----------------------------------------------




 UZF-GWRCH PACKAGE (UZF-1) FLOW RATES   PERIOD      3   STEP        9
 ----------------------------------------------------------------------------------------
   NUMBER   CELLID                    RATE       NAME                                    
 ----------------------------------------------------------------------------------------
     1      (1,1,2)               0.0000000      UZF01                                   
     2      (1,1,3)               0.0000000      UZF02                                   
     3      (1,1,4)               0.0000000      UZF03                                   
     4      (1,1,5)               0.0000000      UZF04                                   
     5      (1,1,6)               0.0000000      UZF05                                   
     6      (1,1,7)               0.0000000      UZF06                                   
     7      (1,1,8)               0.0000000      UZF07                                   
     8      (1,1,9)               0.0000000      UZF08                                   
     9      (2,1,2)               0.0000000      UZF08                                   
     10     (2,1,3)               0.0000000      UZF10                                   
     11     (2,1,4)               0.0000000      UZF11                                   
     12     (2,1,5)               0.0000000      UZF12                                   
     13     (2,1,6)               0.0000000      UZF13                                   
     14     (2,1,7)               0.0000000      UZF14                                   
     15     (2,1,8)               0.0000000      UZF15                                   
     16     (2,1,9)               0.0000000      UZF16                                   
     17     (3,1,2)               0.0000000      UZF17                                   
     18     (3,1,3)               0.0000000      UZF18                                   
     19     (3,1,4)               0.0000000      UZF19                                   
     20     (3,1,5)               0.0000000      UZF20                                   
     21     (3,1,6)               0.0000000      UZF21                                   
     22     (3,1,7)               0.0000000      UZF22                                   
     23     (3,1,8)               0.0000000      UZF23                                   
     24     (3,1,9)               0.0000000      UZF24                                   
 ----------------------------------------------------------------------------------------




 UZF-GWD PACKAGE (UZF-1) FLOW RATES   PERIOD      3   STEP        9
 ----------------------------------------------------------------------------------------
   NUMBER   CELLID                    RATE       NAME                                    
 ----------------------------------------------------------------------------------------
     1      (1,1,2)               0.0000000      UZF01                                   
     2      (1,1,3)               0.0000000      UZF02                                   
     3      (1,1,4)               0.0000000      UZF03                                   
     4      (1,1,5)               0.0000000      UZF04                                   
     5      (1,1,6)               0.0000000      UZF05                                   
     6      (1,1,7)               0.0000000      UZF06                                   
     7      (1,1,8)               0.0000000      UZF07                                   
     8      (1,1,9)               0.0000000      UZF08                                   
     9      (2,1,2)               0.0000000      UZF08                                   
     10     (2,1,3)               0.0000000      UZF10                                   
     11     (2,1,4)               0.0000000      UZF11                                   
     12     (2,1,5)               0.0000000      UZF12                                   
     13     (2,1,6)               0.0000000      UZF13                                   
     14     (2,1,7)               0.0000000      UZF14                                   
     15     (2,1,8)               0.0000000      UZF15                                   
     16     (2,1,9)               0.0000000      UZF16                                   
     17     (3,1,2)               0.0000000      UZF17                                   
     18     (3,1,3)               0.0000000      UZF18                                   
     19     (3,1,4)               0.0000000      UZF19                                   
     20     (3,1,5)               0.0000000      UZF20                                   
     21     (3,1,6)               0.0000000      UZF21                                   
     22     (3,1,7)               0.0000000      UZF22                                   
     23     (3,1,8)               0.0000000      UZF23                                   
     24     (3,1,9)               0.0000000      UZF24                                   
 ----------------------------------------------------------------------------------------




 UZF-GWET PACKAGE (UZF-1) FLOW RATES   PERIOD      3   STEP        9
 ----------------------------------------------------------------------------------------
   NUMBER   CELLID                    RATE       NAME                                    
 ----------------------------------------------------------------------------------------
     1      (1,1,2)               0.0000000      UZF01                                   
     2      (1,1,3)               0.0000000      UZF02                                   
     3      (1,1,4)               0.0000000      UZF03                                   
     4      (1,1,5)               0.0000000      UZF04                                   
     5      (1,1,6)               0.0000000      UZF05                                   
     6      (1,1,7)               0.0000000      UZF06                                   
     7      (1,1,8)               0.0000000      UZF07                                   
     8      (1,1,9)               0.0000000      UZF08                                   
     9      (2,1,2)               0.0000000      UZF08                                   
     10     (2,1,3)               0.0000000      UZF10                                   
     11     (2,1,4)               0.0000000      UZF11                                   
     12     (2,1,5)               0.0000000      UZF12                                   
     13     (2,1,6)               0.0000000      UZF13                                   
     14     (2,1,7)               0.0000000      UZF14                                   
     15     (2,1,8)               0.0000000      UZF15                                   
     16     (2,1,9)               0.0000000      UZF16                                   
     17     (3,1,2)               0.0000000      UZF17                                   
     18     (3,1,3)               0.0000000      UZF18                                   
     19     (3,1,4)               0.0000000      UZF19                                   
     20     (3,1,5)               0.0000000      UZF20                                   
     21     (3,1,6)               0.0000000      UZF21                                   
     22     (3,1,7)               0.0000000      UZF22                                   
     23     (3,1,8)               0.0000000      UZF23                                   
     24     (3,1,9)               0.0000000      UZF24                                   
 ----------------------------------------------------------------------------------------




 UZF-1 PACKAGE - SUMMARY OF FLOWS FOR EACH CONTROL VOLUME   PERIOD      3   STEP        9
 ----------------------------------------------------------------------------------------------------------------------------------------------------
                                                                                                                                           PERCENT   
   NUMBER   CELLID                  INFLOW      OUTFLOW        GWF      INFILTRATION   REJ INF        UZET       STORAGE      IN - OUT    DIFFERENCE 
 ----------------------------------------------------------------------------------------------------------------------------------------------------
     1      (1,1,2)               0.0000      -999.95       0.0000       1000.0       0.0000      -3.56218E-02 -1.49737E-02  2.61480E-12  2.61480E-13
     2      (1,1,3)               0.0000      -999.95       0.0000       1000.0       0.0000      -3.56218E-02 -1.49737E-02  2.61480E-12  2.61480E-13
     3      (1,1,4)               0.0000      -999.95       0.0000       1000.0       0.0000      -3.56218E-02 -1.49737E-02  2.61480E-12  2.61480E-13
     4      (1,1,5)               0.0000      -999.95       0.0000       1000.0       0.0000      -3.56218E-02 -1.49737E-02  2.61480E-12  2.61480E-13
     5      (1,1,6)               0.0000      -999.95       0.0000       1000.0       0.0000      -3.56218E-02 -1.49737E-02  2.61480E-12  2.61480E-13
     6      (1,1,7)               0.0000      -999.95       0.0000       1000.0       0.0000      -3.56218E-02 -1.49737E-02  2.61480E-12  2.61480E-13
     7      (1,1,8)               0.0000      -999.95       0.0000       1000.0       0.0000      -3.56218E-02 -1.49737E-02  2.61480E-12  2.61480E-13
     8      (1,1,9)               0.0000      -999.95       0.0000       1000.0       0.0000      -3.56218E-02 -1.49737E-02  2.61480E-12  2.61480E-13
     9      (2,1,2)               999.95       0.0000       0.0000       0.0000       0.0000      -9.62316E-03 -999.94      -7.95808E-13 -7.95848E-14
     10     (2,1,3)               999.95       0.0000       0.0000       0.0000       0.0000      -9.62316E-03 -999.94      -7.95808E-13 -7.95848E-14
     11     (2,1,4)               999.95       0.0000       0.0000       0.0000       0.0000      -9.62316E-03 -999.94      -7.95808E-13 -7.95848E-14
     12     (2,1,5)               999.95       0.0000       0.0000       0.0000       0.0000      -9.62316E-03 -999.94      -7.95808E-13 -7.95848E-14
     13     (2,1,6)               999.95       0.0000       0.0000       0.0000       0.0000      -9.62316E-03 -999.94      -7.95808E-13 -7.95848E-14
     14     (2,1,7)               999.95       0.0000       0.0000       0.0000       0.0000      -9.62316E-03 -999.94      -7.95808E-13 -7.95848E-14
     15     (2,1,8)               999.95       0.0000       0.0000       0.0000       0.0000      -9.62316E-03 -999.94      -7.95808E-13 -7.95848E-14
     16     (2,1,9)               999.95       0.0000       0.0000       0.0000       0.0000      -9.62316E-03 -999.94      -7.95808E-13 -7.95848E-14
     17     (3,1,2)               0.0000       0.0000       0.0000       0.0000       0.0000       0.0000       0.0000       0.0000       0.0000     
     18     (3,1,3)               0.0000       0.0000       0.0000       0.0000       0.0000       0.0000       0.0000       0.0000       0.0000     
     19     (3,1,4)               0.0000       0.0000       0.0000       0.0000       0.0000       0.0000       0.0000       0.0000       0.0000     
     20     (3,1,5)               0.0000       0.0000       0.0000       0.0000       0.0000       0.0000       0.0000       0.0000       0.0000     
     21     (3,1,6)               0.0000       0.0000       0.0000       0.0000       0.0000       0.0000       0.0000       0.0000       0.0000     
     22     (3,1,7)               0.0000       0.0000       0.0000       0.0000       0.0000       0.0000       0.0000       0.0000       0.0000     
     23     (3,1,8)               0.0000       0.0000       0.0000       0.0000       0.0000       0.0000       0.0000       0.0000       0.0000     
     24     (3,1,9)               0.0000       0.0000       0.0000       0.0000       0.0000       0.0000       0.0000       0.0000       0.0000     
 ----------------------------------------------------------------------------------------------------------------------------------------------------


1
  HEAD IN LAYER   1 AT END OF TIME STEP   9 IN STRESS PERIOD    3
  ---------------------------------------------------------------------------

            1           2           3           4           5           6           7           8           9          10
 ........................................................................................................................
   1   -25.00      -25.00      -25.00      -25.00      -25.00      -25.00      -25.00      -25.00      -25.00      -25.00    
1
  HEAD IN LAYER   2 AT END OF TIME STEP   9 IN STRESS PERIOD    3
  ---------------------------------------------------------------------------

            1           2           3           4           5           6           7           8           9          10
 ........................................................................................................................
   1   -25.00      -25.00      -25.00      -25.00      -25.00      -25.00      -25.00      -25.00      -25.00      -25.00    
1
  HEAD IN LAYER   3 AT END OF TIME STEP   9 IN STRESS PERIOD    3
  ---------------------------------------------------------------------------

            1           2           3           4           5           6           7           8           9          10
 ........................................................................................................................
   1   -25.00      -25.00      -25.00      -25.00      -25.00      -25.00      -25.00      -25.00      -25.00      -25.00    

 HEAD WILL BE SAVED ON UNIT 1022 AT END OF TIME STEP    9, STRESS PERIOD    3


  UZF-1 BUDGET FOR ENTIRE MODEL AT END OF TIME STEP    9, STRESS PERIOD   3
  ------------------------------------------------------------------------------

     CUMULATIVE UZF-1      L**3       RATES FOR THIS TIME STEP      L**3/T
     ------------------                 ------------------------

           IN:                                      IN:
           ---                                      ---
                 GWF =           0.0000                   GWF =           0.0000
        INFILTRATION =      464000.0000          INFILTRATION =        8000.0000
             REJ-INF =           0.0000               REJ-INF =           0.0000
                UZET =           0.0000                  UZET =           0.0000
             STORAGE =           1.1979               STORAGE =           0.0000

            TOTAL IN =      464001.1979              TOTAL IN =        8000.0000

          OUT:                                     OUT:
          ----                                     ----
                 GWF =           0.0000                   GWF =           0.0000
        INFILTRATION =           0.0000          INFILTRATION =           0.0000
             REJ-INF =           0.0000               REJ-INF =           0.0000
                UZET =          17.5004                  UZET =           0.3620
             STORAGE =      463983.6968               STORAGE =        7999.6380

           TOTAL OUT =      464001.1972             TOTAL OUT =        8000.0000

            IN - OUT =       6.7638E-04              IN - OUT =       1.5461E-11

 PERCENT DISCREPANCY =           0.00     PERCENT DISCREPANCY =           0.00



  VOLUME BUDGET FOR ENTIRE MODEL AT END OF TIME STEP    9, STRESS PERIOD   3
  ---------------------------------------------------------------------------------------------------

     CUMULATIVE VOLUME      L**3       RATES FOR THIS TIME STEP      L**3/T          PACKAGE NAME    
     ------------------                 ------------------------                     ----------------

           IN:                                      IN:
           ---                                      ---
              STO-SS =           0.0000                STO-SS =           0.0000     STORAGE         
              STO-SY =           0.0000                STO-SY =           0.0000     STORAGE         
                 CHD =           0.0000                   CHD =           0.0000     CHD-1           
           UZF-GWRCH =           0.0000             UZF-GWRCH =           0.0000     UZF-1           
             UZF-GWD =           0.0000               UZF-GWD =           0.0000     UZF-1           
            UZF-GWET =           0.0000              UZF-GWET =           0.0000     UZF-1           

            TOTAL IN =           0.0000              TOTAL IN =           0.0000

          OUT:                                     OUT:
          ----                                     ----
              STO-SS =           0.0000                STO-SS =           0.0000     STORAGE         
              STO-SY =           0.0000                STO-SY =           0.0000     STORAGE         
                 CHD =           0.0000                   CHD =           0.0000     CHD-1           
           UZF-GWRCH =           0.0000             UZF-GWRCH =           0.0000     UZF-1           
             UZF-GWD =           0.0000               UZF-GWD =           0.0000     UZF-1           
            UZF-GWET =           0.0000              UZF-GWET =           0.0000     UZF-1           

           TOTAL OUT =           0.0000             TOTAL OUT =           0.0000

            IN - OUT =           0.0000              IN - OUT =           0.0000

 PERCENT DISCREPANCY =           0.00     PERCENT DISCREPANCY =           0.00




         TIME SUMMARY AT END OF TIME STEP    9 IN STRESS PERIOD    3
                    SECONDS     MINUTES      HOURS       DAYS        YEARS
                    -----------------------------------------------------------
   TIME STEP LENGTH 1.72800E+05  2880.0      48.000      2.0000     5.47570E-03
 STRESS PERIOD TIME 1.55520E+06  25920.      432.00      18.000     4.92813E-02
         TOTAL TIME 5.01120E+06  83520.      1392.0      58.000     0.15880    


end timestep


start timestep kper="3" kstp="10" mode="normal"

 UBDSV1 SAVING     FLOW-JA-FACE ON UNIT   1020 AT TIME STEP     10, STRESS PERIOD      3
 UBDSV06 SAVING     FLOW-JA-FACE IN MODEL GWF_1            PACKAGE UZF-1           CONNECTED TO MODEL GWF_1            PACKAGE UZF-1            ON UNIT   1014 AT TIME STEP     10, STRESS PERIOD      3
 UBDSV06 SAVING              GWF IN MODEL GWF_1            PACKAGE UZF-1           CONNECTED TO MODEL GWF_1            PACKAGE GWF_1            ON UNIT   1014 AT TIME STEP     10, STRESS PERIOD      3
 UBDSV06 SAVING     INFILTRATION IN MODEL GWF_1            PACKAGE UZF-1           CONNECTED TO MODEL GWF_1            PACKAGE UZF-1            ON UNIT   1014 AT TIME STEP     10, STRESS PERIOD      3
 UBDSV06 SAVING          REJ-INF IN MODEL GWF_1            PACKAGE UZF-1           CONNECTED TO MODEL GWF_1            PACKAGE UZF-1            ON UNIT   1014 AT TIME STEP     10, STRESS PERIOD      3
 UBDSV06 SAVING             UZET IN MODEL GWF_1            PACKAGE UZF-1           CONNECTED TO MODEL GWF_1            PACKAGE UZF-1            ON UNIT   1014 AT TIME STEP     10, STRESS PERIOD      3
 UBDSV06 SAVING          STORAGE IN MODEL GWF_1            PACKAGE UZF-1           CONNECTED TO MODEL GWF_1            PACKAGE UZF-1            ON UNIT   1014 AT TIME STEP     10, STRESS PERIOD      3

 CHD PACKAGE (CHD-1) FLOW RATES   PERIOD      3   STEP       10
 -----------------------------------------------
   NUMBER   CELLID                    RATE      
 -----------------------------------------------
     1      (3,1,1)               0.0000000     
     2      (3,1,10)              0.0000000     
 -----------------------------------------------




 UZF-GWRCH PACKAGE (UZF-1) FLOW RATES   PERIOD      3   STEP       10
 ----------------------------------------------------------------------------------------
   NUMBER   CELLID                    RATE       NAME                                    
 ----------------------------------------------------------------------------------------
     1      (1,1,2)               0.0000000      UZF01                                   
     2      (1,1,3)               0.0000000      UZF02                                   
     3      (1,1,4)               0.0000000      UZF03                                   
     4      (1,1,5)               0.0000000      UZF04                                   
     5      (1,1,6)               0.0000000      UZF05                                   
     6      (1,1,7)               0.0000000      UZF06                                   
     7      (1,1,8)               0.0000000      UZF07                                   
     8      (1,1,9)               0.0000000      UZF08                                   
     9      (2,1,2)               0.0000000      UZF08                                   
     10     (2,1,3)               0.0000000      UZF10                                   
     11     (2,1,4)               0.0000000      UZF11                                   
     12     (2,1,5)               0.0000000      UZF12                                   
     13     (2,1,6)               0.0000000      UZF13                                   
     14     (2,1,7)               0.0000000      UZF14                                   
     15     (2,1,8)               0.0000000      UZF15                                   
     16     (2,1,9)               0.0000000      UZF16                                   
     17     (3,1,2)               0.0000000      UZF17                                   
     18     (3,1,3)               0.0000000      UZF18                                   
     19     (3,1,4)               0.0000000      UZF19                                   
     20     (3,1,5)               0.0000000      UZF20                                   
     21     (3,1,6)               0.0000000      UZF21                                   
     22     (3,1,7)               0.0000000      UZF22                                   
     23     (3,1,8)               0.0000000      UZF23                                   
     24     (3,1,9)               0.0000000      UZF24                                   
 ----------------------------------------------------------------------------------------




 UZF-GWD PACKAGE (UZF-1) FLOW RATES   PERIOD      3   STEP       10
 ----------------------------------------------------------------------------------------
   NUMBER   CELLID                    RATE       NAME                                    
 ----------------------------------------------------------------------------------------
     1      (1,1,2)               0.0000000      UZF01                                   
     2      (1,1,3)               0.0000000      UZF02                                   
     3      (1,1,4)               0.0000000      UZF03                                   
     4      (1,1,5)               0.0000000      UZF04                                   
     5      (1,1,6)               0.0000000      UZF05                                   
     6      (1,1,7)               0.0000000      UZF06                                   
     7      (1,1,8)               0.0000000      UZF07                                   
     8      (1,1,9)               0.0000000      UZF08                                   
     9      (2,1,2)               0.0000000      UZF08                                   
     10     (2,1,3)               0.0000000      UZF10                                   
     11     (2,1,4)               0.0000000      UZF11                                   
     12     (2,1,5)               0.0000000      UZF12                                   
     13     (2,1,6)               0.0000000      UZF13                                   
     14     (2,1,7)               0.0000000      UZF14                                   
     15     (2,1,8)               0.0000000      UZF15                                   
     16     (2,1,9)               0.0000000      UZF16                                   
     17     (3,1,2)               0.0000000      UZF17                                   
     18     (3,1,3)               0.0000000      UZF18                                   
     19     (3,1,4)               0.0000000      UZF19                                   
     20     (3,1,5)               0.0000000      UZF20                                   
     21     (3,1,6)               0.0000000      UZF21                                   
     22     (3,1,7)               0.0000000      UZF22                                   
     23     (3,1,8)               0.0000000      UZF23                                   
     24     (3,1,9)               0.0000000      UZF24                                   
 ----------------------------------------------------------------------------------------




 UZF-GWET PACKAGE (UZF-1) FLOW RATES   PERIOD      3   STEP       10
 ----------------------------------------------------------------------------------------
   NUMBER   CELLID                    RATE       NAME                                    
 ----------------------------------------------------------------------------------------
     1      (1,1,2)               0.0000000      UZF01                                   
     2      (1,1,3)               0.0000000      UZF02                                   
     3      (1,1,4)               0.0000000      UZF03                                   
     4      (1,1,5)               0.0000000      UZF04                                   
     5      (1,1,6)               0.0000000      UZF05                                   
     6      (1,1,7)               0.0000000      UZF06                                   
     7      (1,1,8)               0.0000000      UZF07                                   
     8      (1,1,9)               0.0000000      UZF08                                   
     9      (2,1,2)               0.0000000      UZF08                                   
     10     (2,1,3)               0.0000000      UZF10                                   
     11     (2,1,4)               0.0000000      UZF11                                   
     12     (2,1,5)               0.0000000      UZF12                                   
     13     (2,1,6)               0.0000000      UZF13                                   
     14     (2,1,7)               0.0000000      UZF14                                   
     15     (2,1,8)               0.0000000      UZF15                                   
     16     (2,1,9)               0.0000000      UZF16                                   
     17     (3,1,2)               0.0000000      UZF17                                   
     18     (3,1,3)               0.0000000      UZF18                                   
     19     (3,1,4)               0.0000000      UZF19                                   
     20     (3,1,5)               0.0000000      UZF20                                   
     21     (3,1,6)               0.0000000      UZF21                                   
     22     (3,1,7)               0.0000000      UZF22                                   
     23     (3,1,8)               0.0000000      UZF23                                   
     24     (3,1,9)               0.0000000      UZF24                                   
 ----------------------------------------------------------------------------------------




 UZF-1 PACKAGE - SUMMARY OF FLOWS FOR EACH CONTROL VOLUME   PERIOD      3   STEP       10
 ----------------------------------------------------------------------------------------------------------------------------------------------------
                                                                                                                                           PERCENT   
   NUMBER   CELLID                  INFLOW      OUTFLOW        GWF      INFILTRATION   REJ INF        UZET       STORAGE      IN - OUT    DIFFERENCE 
 ----------------------------------------------------------------------------------------------------------------------------------------------------
     1      (1,1,2)               0.0000      -999.94       0.0000       1000.0       0.0000      -4.12436E-02 -1.49735E-02  2.84217E-12  2.84217E-13
     2      (1,1,3)               0.0000      -999.94       0.0000       1000.0       0.0000      -4.12436E-02 -1.49735E-02  2.84217E-12  2.84217E-13
     3      (1,1,4)               0.0000      -999.94       0.0000       1000.0       0.0000      -4.12436E-02 -1.49735E-02  2.84217E-12  2.84217E-13
     4      (1,1,5)               0.0000      -999.94       0.0000       1000.0       0.0000      -4.12436E-02 -1.49735E-02  2.84217E-12  2.84217E-13
     5      (1,1,6)               0.0000      -999.94       0.0000       1000.0       0.0000      -4.12436E-02 -1.49735E-02  2.84217E-12  2.84217E-13
     6      (1,1,7)               0.0000      -999.94       0.0000       1000.0       0.0000      -4.12436E-02 -1.49735E-02  2.84217E-12  2.84217E-13
     7      (1,1,8)               0.0000      -999.94       0.0000       1000.0       0.0000      -4.12436E-02 -1.49735E-02  2.84217E-12  2.84217E-13
     8      (1,1,9)               0.0000      -999.94       0.0000       1000.0       0.0000      -4.12436E-02 -1.49735E-02  2.84217E-12  2.84217E-13
     9      (2,1,2)               999.94       0.0000       0.0000       0.0000       0.0000      -7.84166E-03 -999.94       1.81899E-12  1.81909E-13
     10     (2,1,3)               999.94       0.0000       0.0000       0.0000       0.0000      -7.84166E-03 -999.94       1.81899E-12  1.81909E-13
     11     (2,1,4)               999.94       0.0000       0.0000       0.0000       0.0000      -7.84166E-03 -999.94       1.81899E-12  1.81909E-13
     12     (2,1,5)               999.94       0.0000       0.0000       0.0000       0.0000      -7.84166E-03 -999.94       1.81899E-12  1.81909E-13
     13     (2,1,6)               999.94       0.0000       0.0000       0.0000       0.0000      -7.84166E-03 -999.94       1.81899E-12  1.81909E-13
     14     (2,1,7)               999.94       0.0000       0.0000       0.0000       0.0000      -7.84166E-03 -999.94       1.81899E-12  1.81909E-13
     15     (2,1,8)               999.94       0.0000       0.0000       0.0000       0.0000      -7.84166E-03 -999.94       1.81899E-12  1.81909E-13
     16     (2,1,9)               999.94       0.0000       0.0000       0.0000       0.0000      -7.84166E-03 -999.94       1.81899E-12  1.81909E-13
     17     (3,1,2)               0.0000       0.0000       0.0000       0.0000       0.0000       0.0000       0.0000       0.0000       0.0000     
     18     (3,1,3)               0.0000       0.0000       0.0000       0.0000       0.0000       0.0000       0.0000       0.0000       0.0000     
     19     (3,1,4)               0.0000       0.0000       0.0000       0.0000       0.0000       0.0000       0.0000       0.0000       0.0000     
     20     (3,1,5)               0.0000       0.0000       0.0000       0.0000       0.0000       0.0000       0.0000       0.0000       0.0000     
     21     (3,1,6)               0.0000       0.0000       0.0000       0.0000       0.0000       0.0000       0.0000       0.0000       0.0000     
     22     (3,1,7)               0.0000       0.0000       0.0000       0.0000       0.0000       0.0000       0.0000       0.0000       0.0000     
     23     (3,1,8)               0.0000       0.0000       0.0000       0.0000       0.0000       0.0000       0.0000       0.0000       0.0000     
     24     (3,1,9)               0.0000       0.0000       0.0000       0.0000       0.0000       0.0000       0.0000       0.0000       0.0000     
 ----------------------------------------------------------------------------------------------------------------------------------------------------


1
  HEAD IN LAYER   1 AT END OF TIME STEP  10 IN STRESS PERIOD    3
  ---------------------------------------------------------------------------

            1           2           3           4           5           6           7           8           9          10
 ........................................................................................................................
   1   -25.00      -25.00      -25.00      -25.00      -25.00      -25.00      -25.00      -25.00      -25.00      -25.00    
1
  HEAD IN LAYER   2 AT END OF TIME STEP  10 IN STRESS PERIOD    3
  ---------------------------------------------------------------------------

            1           2           3           4           5           6           7           8           9          10
 ........................................................................................................................
   1   -25.00      -25.00      -25.00      -25.00      -25.00      -25.00      -25.00      -25.00      -25.00      -25.00    
1
  HEAD IN LAYER   3 AT END OF TIME STEP  10 IN STRESS PERIOD    3
  ---------------------------------------------------------------------------

            1           2           3           4           5           6           7           8           9          10
 ........................................................................................................................
   1   -25.00      -25.00      -25.00      -25.00      -25.00      -25.00      -25.00      -25.00      -25.00      -25.00    

 HEAD WILL BE SAVED ON UNIT 1022 AT END OF TIME STEP   10, STRESS PERIOD    3


  UZF-1 BUDGET FOR ENTIRE MODEL AT END OF TIME STEP   10, STRESS PERIOD   3
  ------------------------------------------------------------------------------

     CUMULATIVE UZF-1      L**3       RATES FOR THIS TIME STEP      L**3/T
     ------------------                 ------------------------

           IN:                                      IN:
           ---                                      ---
                 GWF =           0.0000                   GWF =           0.0000
        INFILTRATION =      480000.0000          INFILTRATION =        8000.0000
             REJ-INF =           0.0000               REJ-INF =           0.0000
                UZET =           0.0000                  UZET =           0.0000
             STORAGE =           1.1979               STORAGE =           0.0000

            TOTAL IN =      480001.1979              TOTAL IN =        8000.0000

          OUT:                                     OUT:
          ----                                     ----
                 GWF =           0.0000                   GWF =           0.0000
        INFILTRATION =           0.0000          INFILTRATION =           0.0000
             REJ-INF =           0.0000               REJ-INF =           0.0000
                UZET =          18.2858                  UZET =           0.3927
             STORAGE =      479982.9114               STORAGE =        7999.6073

           TOTAL OUT =      480001.1972             TOTAL OUT =        8000.0000

            IN - OUT =       6.7638E-04              IN - OUT =       3.7289E-11

 PERCENT DISCREPANCY =           0.00     PERCENT DISCREPANCY =           0.00



  VOLUME BUDGET FOR ENTIRE MODEL AT END OF TIME STEP   10, STRESS PERIOD   3
  ---------------------------------------------------------------------------------------------------

     CUMULATIVE VOLUME      L**3       RATES FOR THIS TIME STEP      L**3/T          PACKAGE NAME    
     ------------------                 ------------------------                     ----------------

           IN:                                      IN:
           ---                                      ---
              STO-SS =           0.0000                STO-SS =           0.0000     STORAGE         
              STO-SY =           0.0000                STO-SY =           0.0000     STORAGE         
                 CHD =           0.0000                   CHD =           0.0000     CHD-1           
           UZF-GWRCH =           0.0000             UZF-GWRCH =           0.0000     UZF-1           
             UZF-GWD =           0.0000               UZF-GWD =           0.0000     UZF-1           
            UZF-GWET =           0.0000              UZF-GWET =           0.0000     UZF-1           

            TOTAL IN =           0.0000              TOTAL IN =           0.0000

          OUT:                                     OUT:
          ----                                     ----
              STO-SS =           0.0000                STO-SS =           0.0000     STORAGE         
              STO-SY =           0.0000                STO-SY =           0.0000     STORAGE         
                 CHD =           0.0000                   CHD =           0.0000     CHD-1           
           UZF-GWRCH =           0.0000             UZF-GWRCH =           0.0000     UZF-1           
             UZF-GWD =           0.0000               UZF-GWD =           0.0000     UZF-1           
            UZF-GWET =           0.0000              UZF-GWET =           0.0000     UZF-1           

           TOTAL OUT =           0.0000             TOTAL OUT =           0.0000

            IN - OUT =           0.0000              IN - OUT =           0.0000

 PERCENT DISCREPANCY =           0.00     PERCENT DISCREPANCY =           0.00




         TIME SUMMARY AT END OF TIME STEP   10 IN STRESS PERIOD    3
                    SECONDS     MINUTES      HOURS       DAYS        YEARS
                    -----------------------------------------------------------
   TIME STEP LENGTH 1.72800E+05  2880.0      48.000      2.0000     5.47570E-03
 STRESS PERIOD TIME 1.72800E+06  28800.      480.00      20.000     5.47570E-02
         TOTAL TIME 5.18400E+06  86400.      1440.0      60.000     0.16427    


end timestep


start timestep kper="4" kstp="1" mode="normal"


 OUTPUT CONTROL FOR STRESS PERIOD 4 IS REPEATED USING SETTINGS FROM A PREVIOUS STRESS PERIOD.


 STRESS PERIOD 4 IS TRANSIENT


 REUSING CHDS FROM LAST STRESS PERIOD

 UZF CELLS PACKAGE (UZF-1) DATA FOR PERIOD      4
 ----------------------------------------------------------------------------------------------------------------------------
   NUMBER   CELLID                   FINF         PET         EXTDEP       EXTWC     BOUNDNAME                               
 ----------------------------------------------------------------------------------------------------------------------------
     1      (1,1,2)               0.0000       1.00000E-06  15.000       7.00000E-02 UZF01                                   
     2      (1,1,3)               0.0000       1.00000E-06  15.000       7.00000E-02 UZF02                                   
     3      (1,1,4)               0.0000       1.00000E-06  15.000       7.00000E-02 UZF03                                   
     4      (1,1,5)               0.0000       1.00000E-06  15.000       7.00000E-02 UZF04                                   
     5      (1,1,6)               0.0000       1.00000E-06  15.000       7.00000E-02 UZF05                                   
     6      (1,1,7)               0.0000       1.00000E-06  15.000       7.00000E-02 UZF06                                   
     7      (1,1,8)               0.0000       1.00000E-06  15.000       7.00000E-02 UZF07                                   
     8      (1,1,9)               0.0000       1.00000E-06  15.000       7.00000E-02 UZF08                                   
     9      (2,1,2)               0.0000       1.00000E-06  15.000       7.00000E-02 UZF08                                   
     10     (2,1,3)               0.0000       1.00000E-06  15.000       7.00000E-02 UZF10                                   
     11     (2,1,4)               0.0000       1.00000E-06  15.000       7.00000E-02 UZF11                                   
     12     (2,1,5)               0.0000       1.00000E-06  15.000       7.00000E-02 UZF12                                   
     13     (2,1,6)               0.0000       1.00000E-06  15.000       7.00000E-02 UZF13                                   
     14     (2,1,7)               0.0000       1.00000E-06  15.000       7.00000E-02 UZF14                                   
     15     (2,1,8)               0.0000       1.00000E-06  15.000       7.00000E-02 UZF15                                   
     16     (2,1,9)               0.0000       1.00000E-06  15.000       7.00000E-02 UZF16                                   
 ----------------------------------------------------------------------------------------------------------------------------


 UBDSV1 SAVING     FLOW-JA-FACE ON UNIT   1020 AT TIME STEP      1, STRESS PERIOD      4
 UBDSV06 SAVING     FLOW-JA-FACE IN MODEL GWF_1            PACKAGE UZF-1           CONNECTED TO MODEL GWF_1            PACKAGE UZF-1            ON UNIT   1014 AT TIME STEP      1, STRESS PERIOD      4
 UBDSV06 SAVING              GWF IN MODEL GWF_1            PACKAGE UZF-1           CONNECTED TO MODEL GWF_1            PACKAGE GWF_1            ON UNIT   1014 AT TIME STEP      1, STRESS PERIOD      4
 UBDSV06 SAVING     INFILTRATION IN MODEL GWF_1            PACKAGE UZF-1           CONNECTED TO MODEL GWF_1            PACKAGE UZF-1            ON UNIT   1014 AT TIME STEP      1, STRESS PERIOD      4
 UBDSV06 SAVING          REJ-INF IN MODEL GWF_1            PACKAGE UZF-1           CONNECTED TO MODEL GWF_1            PACKAGE UZF-1            ON UNIT   1014 AT TIME STEP      1, STRESS PERIOD      4
 UBDSV06 SAVING             UZET IN MODEL GWF_1            PACKAGE UZF-1           CONNECTED TO MODEL GWF_1            PACKAGE UZF-1            ON UNIT   1014 AT TIME STEP      1, STRESS PERIOD      4
 UBDSV06 SAVING          STORAGE IN MODEL GWF_1            PACKAGE UZF-1           CONNECTED TO MODEL GWF_1            PACKAGE UZF-1            ON UNIT   1014 AT TIME STEP      1, STRESS PERIOD      4

 CHD PACKAGE (CHD-1) FLOW RATES   PERIOD      4   STEP        1
 -----------------------------------------------
   NUMBER   CELLID                    RATE      
 -----------------------------------------------
     1      (3,1,1)               0.0000000     
     2      (3,1,10)              0.0000000     
 -----------------------------------------------




 UZF-GWRCH PACKAGE (UZF-1) FLOW RATES   PERIOD      4   STEP        1
 ----------------------------------------------------------------------------------------
   NUMBER   CELLID                    RATE       NAME                                    
 ----------------------------------------------------------------------------------------
     1      (1,1,2)               0.0000000      UZF01                                   
     2      (1,1,3)               0.0000000      UZF02                                   
     3      (1,1,4)               0.0000000      UZF03                                   
     4      (1,1,5)               0.0000000      UZF04                                   
     5      (1,1,6)               0.0000000      UZF05                                   
     6      (1,1,7)               0.0000000      UZF06                                   
     7      (1,1,8)               0.0000000      UZF07                                   
     8      (1,1,9)               0.0000000      UZF08                                   
     9      (2,1,2)               0.0000000      UZF08                                   
     10     (2,1,3)               0.0000000      UZF10                                   
     11     (2,1,4)               0.0000000      UZF11                                   
     12     (2,1,5)               0.0000000      UZF12                                   
     13     (2,1,6)               0.0000000      UZF13                                   
     14     (2,1,7)               0.0000000      UZF14                                   
     15     (2,1,8)               0.0000000      UZF15                                   
     16     (2,1,9)               0.0000000      UZF16                                   
     17     (3,1,2)               0.0000000      UZF17                                   
     18     (3,1,3)               0.0000000      UZF18                                   
     19     (3,1,4)               0.0000000      UZF19                                   
     20     (3,1,5)               0.0000000      UZF20                                   
     21     (3,1,6)               0.0000000      UZF21                                   
     22     (3,1,7)               0.0000000      UZF22                                   
     23     (3,1,8)               0.0000000      UZF23                                   
     24     (3,1,9)               0.0000000      UZF24                                   
 ----------------------------------------------------------------------------------------




 UZF-GWD PACKAGE (UZF-1) FLOW RATES   PERIOD      4   STEP        1
 ----------------------------------------------------------------------------------------
   NUMBER   CELLID                    RATE       NAME                                    
 ----------------------------------------------------------------------------------------
     1      (1,1,2)               0.0000000      UZF01                                   
     2      (1,1,3)               0.0000000      UZF02                                   
     3      (1,1,4)               0.0000000      UZF03                                   
     4      (1,1,5)               0.0000000      UZF04                                   
     5      (1,1,6)               0.0000000      UZF05                                   
     6      (1,1,7)               0.0000000      UZF06                                   
     7      (1,1,8)               0.0000000      UZF07                                   
     8      (1,1,9)               0.0000000      UZF08                                   
     9      (2,1,2)               0.0000000      UZF08                                   
     10     (2,1,3)               0.0000000      UZF10                                   
     11     (2,1,4)               0.0000000      UZF11                                   
     12     (2,1,5)               0.0000000      UZF12                                   
     13     (2,1,6)               0.0000000      UZF13                                   
     14     (2,1,7)               0.0000000      UZF14                                   
     15     (2,1,8)               0.0000000      UZF15                                   
     16     (2,1,9)               0.0000000      UZF16                                   
     17     (3,1,2)               0.0000000      UZF17                                   
     18     (3,1,3)               0.0000000      UZF18                                   
     19     (3,1,4)               0.0000000      UZF19                                   
     20     (3,1,5)               0.0000000      UZF20                                   
     21     (3,1,6)               0.0000000      UZF21                                   
     22     (3,1,7)               0.0000000      UZF22                                   
     23     (3,1,8)               0.0000000      UZF23                                   
     24     (3,1,9)               0.0000000      UZF24                                   
 ----------------------------------------------------------------------------------------




 UZF-GWET PACKAGE (UZF-1) FLOW RATES   PERIOD      4   STEP        1
 ----------------------------------------------------------------------------------------
   NUMBER   CELLID                    RATE       NAME                                    
 ----------------------------------------------------------------------------------------
     1      (1,1,2)               0.0000000      UZF01                                   
     2      (1,1,3)               0.0000000      UZF02                                   
     3      (1,1,4)               0.0000000      UZF03                                   
     4      (1,1,5)               0.0000000      UZF04                                   
     5      (1,1,6)               0.0000000      UZF05                                   
     6      (1,1,7)               0.0000000      UZF06                                   
     7      (1,1,8)               0.0000000      UZF07                                   
     8      (1,1,9)               0.0000000      UZF08                                   
     9      (2,1,2)               0.0000000      UZF08                                   
     10     (2,1,3)               0.0000000      UZF10                                   
     11     (2,1,4)               0.0000000      UZF11                                   
     12     (2,1,5)               0.0000000      UZF12                                   
     13     (2,1,6)               0.0000000      UZF13                                   
     14     (2,1,7)               0.0000000      UZF14                                   
     15     (2,1,8)               0.0000000      UZF15                                   
     16     (2,1,9)               0.0000000      UZF16                                   
     17     (3,1,2)               0.0000000      UZF17                                   
     18     (3,1,3)               0.0000000      UZF18                                   
     19     (3,1,4)               0.0000000      UZF19                                   
     20     (3,1,5)               0.0000000      UZF20                                   
     21     (3,1,6)               0.0000000      UZF21                                   
     22     (3,1,7)               0.0000000      UZF22                                   
     23     (3,1,8)               0.0000000      UZF23                                   
     24     (3,1,9)               0.0000000      UZF24                                   
 ----------------------------------------------------------------------------------------




 UZF-1 PACKAGE - SUMMARY OF FLOWS FOR EACH CONTROL VOLUME   PERIOD      4   STEP        1
 ----------------------------------------------------------------------------------------------------------------------------------------------------
                                                                                                                                           PERCENT   
   NUMBER   CELLID                  INFLOW      OUTFLOW        GWF      INFILTRATION   REJ INF        UZET       STORAGE      IN - OUT    DIFFERENCE 
 ----------------------------------------------------------------------------------------------------------------------------------------------------
     1      (1,1,2)               0.0000      -473.38       0.0000       0.0000       0.0000      -2.70169E-02  473.41       9.27598E-07  1.95941E-07
     2      (1,1,3)               0.0000      -473.38       0.0000       0.0000       0.0000      -2.70169E-02  473.41       9.27598E-07  1.95941E-07
     3      (1,1,4)               0.0000      -473.38       0.0000       0.0000       0.0000      -2.70169E-02  473.41       9.27598E-07  1.95941E-07
     4      (1,1,5)               0.0000      -473.38       0.0000       0.0000       0.0000      -2.70169E-02  473.41       9.27598E-07  1.95941E-07
     5      (1,1,6)               0.0000      -473.38       0.0000       0.0000       0.0000      -2.70169E-02  473.41       9.27598E-07  1.95941E-07
     6      (1,1,7)               0.0000      -473.38       0.0000       0.0000       0.0000      -2.70169E-02  473.41       9.27598E-07  1.95941E-07
     7      (1,1,8)               0.0000      -473.38       0.0000       0.0000       0.0000      -2.70169E-02  473.41       9.27598E-07  1.95941E-07
     8      (1,1,9)               0.0000      -473.38       0.0000       0.0000       0.0000      -2.70169E-02  473.41       9.27598E-07  1.95941E-07
     9      (2,1,2)               473.38       0.0000       0.0000       0.0000       0.0000      -2.53361E-02 -473.35       2.42209E-05  5.11660E-06
     10     (2,1,3)               473.38       0.0000       0.0000       0.0000       0.0000      -2.53361E-02 -473.35       2.42209E-05  5.11660E-06
     11     (2,1,4)               473.38       0.0000       0.0000       0.0000       0.0000      -2.53361E-02 -473.35       2.42209E-05  5.11660E-06
     12     (2,1,5)               473.38       0.0000       0.0000       0.0000       0.0000      -2.53361E-02 -473.35       2.42209E-05  5.11660E-06
     13     (2,1,6)               473.38       0.0000       0.0000       0.0000       0.0000      -2.53361E-02 -473.35       2.42209E-05  5.11660E-06
     14     (2,1,7)               473.38       0.0000       0.0000       0.0000       0.0000      -2.53361E-02 -473.35       2.42209E-05  5.11660E-06
     15     (2,1,8)               473.38       0.0000       0.0000       0.0000       0.0000      -2.53361E-02 -473.35       2.42209E-05  5.11660E-06
     16     (2,1,9)               473.38       0.0000       0.0000       0.0000       0.0000      -2.53361E-02 -473.35       2.42209E-05  5.11660E-06
     17     (3,1,2)               0.0000       0.0000       0.0000       0.0000       0.0000       0.0000       0.0000       0.0000       0.0000     
     18     (3,1,3)               0.0000       0.0000       0.0000       0.0000       0.0000       0.0000       0.0000       0.0000       0.0000     
     19     (3,1,4)               0.0000       0.0000       0.0000       0.0000       0.0000       0.0000       0.0000       0.0000       0.0000     
     20     (3,1,5)               0.0000       0.0000       0.0000       0.0000       0.0000       0.0000       0.0000       0.0000       0.0000     
     21     (3,1,6)               0.0000       0.0000       0.0000       0.0000       0.0000       0.0000       0.0000       0.0000       0.0000     
     22     (3,1,7)               0.0000       0.0000       0.0000       0.0000       0.0000       0.0000       0.0000       0.0000       0.0000     
     23     (3,1,8)               0.0000       0.0000       0.0000       0.0000       0.0000       0.0000       0.0000       0.0000       0.0000     
     24     (3,1,9)               0.0000       0.0000       0.0000       0.0000       0.0000       0.0000       0.0000       0.0000       0.0000     
 ----------------------------------------------------------------------------------------------------------------------------------------------------


1
  HEAD IN LAYER   1 AT END OF TIME STEP   1 IN STRESS PERIOD    4
  ---------------------------------------------------------------------------

            1           2           3           4           5           6           7           8           9          10
 ........................................................................................................................
   1   -25.00      -25.00      -25.00      -25.00      -25.00      -25.00      -25.00      -25.00      -25.00      -25.00    
1
  HEAD IN LAYER   2 AT END OF TIME STEP   1 IN STRESS PERIOD    4
  ---------------------------------------------------------------------------

            1           2           3           4           5           6           7           8           9          10
 ........................................................................................................................
   1   -25.00      -25.00      -25.00      -25.00      -25.00      -25.00      -25.00      -25.00      -25.00      -25.00    
1
  HEAD IN LAYER   3 AT END OF TIME STEP   1 IN STRESS PERIOD    4
  ---------------------------------------------------------------------------

            1           2           3           4           5           6           7           8           9          10
 ........................................................................................................................
   1   -25.00      -25.00      -25.00      -25.00      -25.00      -25.00      -25.00      -25.00      -25.00      -25.00    

 HEAD WILL BE SAVED ON UNIT 1022 AT END OF TIME STEP    1, STRESS PERIOD    4


  UZF-1 BUDGET FOR ENTIRE MODEL AT END OF TIME STEP    1, STRESS PERIOD   4
  ------------------------------------------------------------------------------

     CUMULATIVE UZF-1      L**3       RATES FOR THIS TIME STEP      L**3/T
     ------------------                 ------------------------

           IN:                                      IN:
           ---                                      ---
                 GWF =           0.0000                   GWF =           0.0000
        INFILTRATION =      480000.0000          INFILTRATION =           0.0000
             REJ-INF =           0.0000               REJ-INF =           0.0000
                UZET =           0.0000                  UZET =           0.0000
             STORAGE =      189363.6344               STORAGE =        3787.2487

            TOTAL IN =      669363.6344              TOTAL IN =        3787.2487

          OUT:                                     OUT:
          ----                                     ----
                 GWF =           0.0000                   GWF =           0.0000
        INFILTRATION =           0.0000          INFILTRATION =           0.0000
             REJ-INF =           0.0000               REJ-INF =           0.0000
                UZET =          39.2270                  UZET =           0.4188
             STORAGE =      669324.3967               STORAGE =        3786.8297

           TOTAL OUT =      669363.6237             TOTAL OUT =        3787.2485

            IN - OUT =       1.0736E-02              IN - OUT =       2.0119E-04

 PERCENT DISCREPANCY =           0.00     PERCENT DISCREPANCY =           0.00



  VOLUME BUDGET FOR ENTIRE MODEL AT END OF TIME STEP    1, STRESS PERIOD   4
  ---------------------------------------------------------------------------------------------------

     CUMULATIVE VOLUME      L**3       RATES FOR THIS TIME STEP      L**3/T          PACKAGE NAME    
     ------------------                 ------------------------                     ----------------

           IN:                                      IN:
           ---                                      ---
              STO-SS =           0.0000                STO-SS =           0.0000     STORAGE         
              STO-SY =           0.0000                STO-SY =           0.0000     STORAGE         
                 CHD =           0.0000                   CHD =           0.0000     CHD-1           
           UZF-GWRCH =           0.0000             UZF-GWRCH =           0.0000     UZF-1           
             UZF-GWD =           0.0000               UZF-GWD =           0.0000     UZF-1           
            UZF-GWET =           0.0000              UZF-GWET =           0.0000     UZF-1           

            TOTAL IN =           0.0000              TOTAL IN =           0.0000

          OUT:                                     OUT:
          ----                                     ----
              STO-SS =           0.0000                STO-SS =           0.0000     STORAGE         
              STO-SY =           0.0000                STO-SY =           0.0000     STORAGE         
                 CHD =           0.0000                   CHD =           0.0000     CHD-1           
           UZF-GWRCH =           0.0000             UZF-GWRCH =           0.0000     UZF-1           
             UZF-GWD =           0.0000               UZF-GWD =           0.0000     UZF-1           
            UZF-GWET =           0.0000              UZF-GWET =           0.0000     UZF-1           

           TOTAL OUT =           0.0000             TOTAL OUT =           0.0000

            IN - OUT =           0.0000              IN - OUT =           0.0000

 PERCENT DISCREPANCY =           0.00     PERCENT DISCREPANCY =           0.00




         TIME SUMMARY AT END OF TIME STEP    1 IN STRESS PERIOD    4
                    SECONDS     MINUTES      HOURS       DAYS        YEARS
                    -----------------------------------------------------------
   TIME STEP LENGTH 4.32000E+06  72000.      1200.0      50.000     0.13689    
 STRESS PERIOD TIME 4.32000E+06  72000.      1200.0      50.000     0.13689    
         TOTAL TIME 9.50400E+06 1.58400E+05  2640.0      110.00     0.30116    


end timestep


start timestep kper="4" kstp="2" mode="normal"

 UBDSV1 SAVING     FLOW-JA-FACE ON UNIT   1020 AT TIME STEP      2, STRESS PERIOD      4
 UBDSV06 SAVING     FLOW-JA-FACE IN MODEL GWF_1            PACKAGE UZF-1           CONNECTED TO MODEL GWF_1            PACKAGE UZF-1            ON UNIT   1014 AT TIME STEP      2, STRESS PERIOD      4
 UBDSV06 SAVING              GWF IN MODEL GWF_1            PACKAGE UZF-1           CONNECTED TO MODEL GWF_1            PACKAGE GWF_1            ON UNIT   1014 AT TIME STEP      2, STRESS PERIOD      4
 UBDSV06 SAVING     INFILTRATION IN MODEL GWF_1            PACKAGE UZF-1           CONNECTED TO MODEL GWF_1            PACKAGE UZF-1            ON UNIT   1014 AT TIME STEP      2, STRESS PERIOD      4
 UBDSV06 SAVING          REJ-INF IN MODEL GWF_1            PACKAGE UZF-1           CONNECTED TO MODEL GWF_1            PACKAGE UZF-1            ON UNIT   1014 AT TIME STEP      2, STRESS PERIOD      4
 UBDSV06 SAVING             UZET IN MODEL GWF_1            PACKAGE UZF-1           CONNECTED TO MODEL GWF_1            PACKAGE UZF-1            ON UNIT   1014 AT TIME STEP      2, STRESS PERIOD      4
 UBDSV06 SAVING          STORAGE IN MODEL GWF_1            PACKAGE UZF-1           CONNECTED TO MODEL GWF_1            PACKAGE UZF-1            ON UNIT   1014 AT TIME STEP      2, STRESS PERIOD      4

 CHD PACKAGE (CHD-1) FLOW RATES   PERIOD      4   STEP        2
 -----------------------------------------------
   NUMBER   CELLID                    RATE      
 -----------------------------------------------
     1      (3,1,1)               0.0000000     
     2      (3,1,10)              0.0000000     
 -----------------------------------------------




 UZF-GWRCH PACKAGE (UZF-1) FLOW RATES   PERIOD      4   STEP        2
 ----------------------------------------------------------------------------------------
   NUMBER   CELLID                    RATE       NAME                                    
 ----------------------------------------------------------------------------------------
     1      (1,1,2)               0.0000000      UZF01                                   
     2      (1,1,3)               0.0000000      UZF02                                   
     3      (1,1,4)               0.0000000      UZF03                                   
     4      (1,1,5)               0.0000000      UZF04                                   
     5      (1,1,6)               0.0000000      UZF05                                   
     6      (1,1,7)               0.0000000      UZF06                                   
     7      (1,1,8)               0.0000000      UZF07                                   
     8      (1,1,9)               0.0000000      UZF08                                   
     9      (2,1,2)               0.0000000      UZF08                                   
     10     (2,1,3)               0.0000000      UZF10                                   
     11     (2,1,4)               0.0000000      UZF11                                   
     12     (2,1,5)               0.0000000      UZF12                                   
     13     (2,1,6)               0.0000000      UZF13                                   
     14     (2,1,7)               0.0000000      UZF14                                   
     15     (2,1,8)               0.0000000      UZF15                                   
     16     (2,1,9)               0.0000000      UZF16                                   
     17     (3,1,2)               0.0000000      UZF17                                   
     18     (3,1,3)               0.0000000      UZF18                                   
     19     (3,1,4)               0.0000000      UZF19                                   
     20     (3,1,5)               0.0000000      UZF20                                   
     21     (3,1,6)               0.0000000      UZF21                                   
     22     (3,1,7)               0.0000000      UZF22                                   
     23     (3,1,8)               0.0000000      UZF23                                   
     24     (3,1,9)               0.0000000      UZF24                                   
 ----------------------------------------------------------------------------------------




 UZF-GWD PACKAGE (UZF-1) FLOW RATES   PERIOD      4   STEP        2
 ----------------------------------------------------------------------------------------
   NUMBER   CELLID                    RATE       NAME                                    
 ----------------------------------------------------------------------------------------
     1      (1,1,2)               0.0000000      UZF01                                   
     2      (1,1,3)               0.0000000      UZF02                                   
     3      (1,1,4)               0.0000000      UZF03                                   
     4      (1,1,5)               0.0000000      UZF04                                   
     5      (1,1,6)               0.0000000      UZF05                                   
     6      (1,1,7)               0.0000000      UZF06                                   
     7      (1,1,8)               0.0000000      UZF07                                   
     8      (1,1,9)               0.0000000      UZF08                                   
     9      (2,1,2)               0.0000000      UZF08                                   
     10     (2,1,3)               0.0000000      UZF10                                   
     11     (2,1,4)               0.0000000      UZF11                                   
     12     (2,1,5)               0.0000000      UZF12                                   
     13     (2,1,6)               0.0000000      UZF13                                   
     14     (2,1,7)               0.0000000      UZF14                                   
     15     (2,1,8)               0.0000000      UZF15                                   
     16     (2,1,9)               0.0000000      UZF16                                   
     17     (3,1,2)               0.0000000      UZF17                                   
     18     (3,1,3)               0.0000000      UZF18                                   
     19     (3,1,4)               0.0000000      UZF19                                   
     20     (3,1,5)               0.0000000      UZF20                                   
     21     (3,1,6)               0.0000000      UZF21                                   
     22     (3,1,7)               0.0000000      UZF22                                   
     23     (3,1,8)               0.0000000      UZF23                                   
     24     (3,1,9)               0.0000000      UZF24                                   
 ----------------------------------------------------------------------------------------




 UZF-GWET PACKAGE (UZF-1) FLOW RATES   PERIOD      4   STEP        2
 ----------------------------------------------------------------------------------------
   NUMBER   CELLID                    RATE       NAME                                    
 ----------------------------------------------------------------------------------------
     1      (1,1,2)               0.0000000      UZF01                                   
     2      (1,1,3)               0.0000000      UZF02                                   
     3      (1,1,4)               0.0000000      UZF03                                   
     4      (1,1,5)               0.0000000      UZF04                                   
     5      (1,1,6)               0.0000000      UZF05                                   
     6      (1,1,7)               0.0000000      UZF06                                   
     7      (1,1,8)               0.0000000      UZF07                                   
     8      (1,1,9)               0.0000000      UZF08                                   
     9      (2,1,2)               0.0000000      UZF08                                   
     10     (2,1,3)               0.0000000      UZF10                                   
     11     (2,1,4)               0.0000000      UZF11                                   
     12     (2,1,5)               0.0000000      UZF12                                   
     13     (2,1,6)               0.0000000      UZF13                                   
     14     (2,1,7)               0.0000000      UZF14                                   
     15     (2,1,8)               0.0000000      UZF15                                   
     16     (2,1,9)               0.0000000      UZF16                                   
     17     (3,1,2)               0.0000000      UZF17                                   
     18     (3,1,3)               0.0000000      UZF18                                   
     19     (3,1,4)               0.0000000      UZF19                                   
     20     (3,1,5)               0.0000000      UZF20                                   
     21     (3,1,6)               0.0000000      UZF21                                   
     22     (3,1,7)               0.0000000      UZF22                                   
     23     (3,1,8)               0.0000000      UZF23                                   
     24     (3,1,9)               0.0000000      UZF24                                   
 ----------------------------------------------------------------------------------------




 UZF-1 PACKAGE - SUMMARY OF FLOWS FOR EACH CONTROL VOLUME   PERIOD      4   STEP        2
 ----------------------------------------------------------------------------------------------------------------------------------------------------
                                                                                                                                           PERCENT   
   NUMBER   CELLID                  INFLOW      OUTFLOW        GWF      INFILTRATION   REJ INF        UZET       STORAGE      IN - OUT    DIFFERENCE 
 ----------------------------------------------------------------------------------------------------------------------------------------------------
     1      (1,1,2)               0.0000      -78.503       0.0000       0.0000       0.0000      -2.40338E-02  78.530       3.13794E-03  3.99594E-03
     2      (1,1,3)               0.0000      -78.503       0.0000       0.0000       0.0000      -2.40338E-02  78.530       3.13794E-03  3.99594E-03
     3      (1,1,4)               0.0000      -78.503       0.0000       0.0000       0.0000      -2.40338E-02  78.530       3.13794E-03  3.99594E-03
     4      (1,1,5)               0.0000      -78.503       0.0000       0.0000       0.0000      -2.40338E-02  78.530       3.13794E-03  3.99594E-03
     5      (1,1,6)               0.0000      -78.503       0.0000       0.0000       0.0000      -2.40338E-02  78.530       3.13794E-03  3.99594E-03
     6      (1,1,7)               0.0000      -78.503       0.0000       0.0000       0.0000      -2.40338E-02  78.530       3.13794E-03  3.99594E-03
     7      (1,1,8)               0.0000      -78.503       0.0000       0.0000       0.0000      -2.40338E-02  78.530       3.13794E-03  3.99594E-03
     8      (1,1,9)               0.0000      -78.503       0.0000       0.0000       0.0000      -2.40338E-02  78.530       3.13794E-03  3.99594E-03
     9      (2,1,2)               78.503       0.0000       0.0000       0.0000       0.0000      -4.03447E-02 -78.462       6.53160E-06  8.32021E-06
     10     (2,1,3)               78.503       0.0000       0.0000       0.0000       0.0000      -4.03447E-02 -78.462       6.53160E-06  8.32021E-06
     11     (2,1,4)               78.503       0.0000       0.0000       0.0000       0.0000      -4.03447E-02 -78.462       6.53160E-06  8.32021E-06
     12     (2,1,5)               78.503       0.0000       0.0000       0.0000       0.0000      -4.03447E-02 -78.462       6.53160E-06  8.32021E-06
     13     (2,1,6)               78.503       0.0000       0.0000       0.0000       0.0000      -4.03447E-02 -78.462       6.53160E-06  8.32021E-06
     14     (2,1,7)               78.503       0.0000       0.0000       0.0000       0.0000      -4.03447E-02 -78.462       6.53160E-06  8.32021E-06
     15     (2,1,8)               78.503       0.0000       0.0000       0.0000       0.0000      -4.03447E-02 -78.462       6.53160E-06  8.32021E-06
     16     (2,1,9)               78.503       0.0000       0.0000       0.0000       0.0000      -4.03447E-02 -78.462       6.53160E-06  8.32021E-06
     17     (3,1,2)               0.0000       0.0000       0.0000       0.0000       0.0000       0.0000       0.0000       0.0000       0.0000     
     18     (3,1,3)               0.0000       0.0000       0.0000       0.0000       0.0000       0.0000       0.0000       0.0000       0.0000     
     19     (3,1,4)               0.0000       0.0000       0.0000       0.0000       0.0000       0.0000       0.0000       0.0000       0.0000     
     20     (3,1,5)               0.0000       0.0000       0.0000       0.0000       0.0000       0.0000       0.0000       0.0000       0.0000     
     21     (3,1,6)               0.0000       0.0000       0.0000       0.0000       0.0000       0.0000       0.0000       0.0000       0.0000     
     22     (3,1,7)               0.0000       0.0000       0.0000       0.0000       0.0000       0.0000       0.0000       0.0000       0.0000     
     23     (3,1,8)               0.0000       0.0000       0.0000       0.0000       0.0000       0.0000       0.0000       0.0000       0.0000     
     24     (3,1,9)               0.0000       0.0000       0.0000       0.0000       0.0000       0.0000       0.0000       0.0000       0.0000     
 ----------------------------------------------------------------------------------------------------------------------------------------------------


1
  HEAD IN LAYER   1 AT END OF TIME STEP   2 IN STRESS PERIOD    4
  ---------------------------------------------------------------------------

            1           2           3           4           5           6           7           8           9          10
 ........................................................................................................................
   1   -25.00      -25.00      -25.00      -25.00      -25.00      -25.00      -25.00      -25.00      -25.00      -25.00    
1
  HEAD IN LAYER   2 AT END OF TIME STEP   2 IN STRESS PERIOD    4
  ---------------------------------------------------------------------------

            1           2           3           4           5           6           7           8           9          10
 ........................................................................................................................
   1   -25.00      -25.00      -25.00      -25.00      -25.00      -25.00      -25.00      -25.00      -25.00      -25.00    
1
  HEAD IN LAYER   3 AT END OF TIME STEP   2 IN STRESS PERIOD    4
  ---------------------------------------------------------------------------

            1           2           3           4           5           6           7           8           9          10
 ........................................................................................................................
   1   -25.00      -25.00      -25.00      -25.00      -25.00      -25.00      -25.00      -25.00      -25.00      -25.00    

 HEAD WILL BE SAVED ON UNIT 1022 AT END OF TIME STEP    2, STRESS PERIOD    4


  UZF-1 BUDGET FOR ENTIRE MODEL AT END OF TIME STEP    2, STRESS PERIOD   4
  ------------------------------------------------------------------------------

     CUMULATIVE UZF-1      L**3       RATES FOR THIS TIME STEP      L**3/T
     ------------------                 ------------------------

           IN:                                      IN:
           ---                                      ---
                 GWF =           0.0000                   GWF =           0.0000
        INFILTRATION =      480000.0000          INFILTRATION =           0.0000
             REJ-INF =           0.0000               REJ-INF =           0.0000
                UZET =           0.0000                  UZET =           0.0000
             STORAGE =      220775.5955               STORAGE =         628.2392

            TOTAL IN =      700775.5955              TOTAL IN =         628.2392

          OUT:                                     OUT:
          ----                                     ----
                 GWF =           0.0000                   GWF =           0.0000
        INFILTRATION =           0.0000          INFILTRATION =           0.0000
             REJ-INF =           0.0000               REJ-INF =           0.0000
                UZET =          64.9784                  UZET =           0.5150
             STORAGE =      700709.3486               STORAGE =         627.6990

           TOTAL OUT =      700774.3270             TOTAL OUT =         628.2141

            IN - OUT =           1.2685              IN - OUT =       2.5156E-02

 PERCENT DISCREPANCY =           0.00     PERCENT DISCREPANCY =           0.00



  VOLUME BUDGET FOR ENTIRE MODEL AT END OF TIME STEP    2, STRESS PERIOD   4
  ---------------------------------------------------------------------------------------------------

     CUMULATIVE VOLUME      L**3       RATES FOR THIS TIME STEP      L**3/T          PACKAGE NAME    
     ------------------                 ------------------------                     ----------------

           IN:                                      IN:
           ---                                      ---
              STO-SS =           0.0000                STO-SS =           0.0000     STORAGE         
              STO-SY =           0.0000                STO-SY =           0.0000     STORAGE         
                 CHD =           0.0000                   CHD =           0.0000     CHD-1           
           UZF-GWRCH =           0.0000             UZF-GWRCH =           0.0000     UZF-1           
             UZF-GWD =           0.0000               UZF-GWD =           0.0000     UZF-1           
            UZF-GWET =           0.0000              UZF-GWET =           0.0000     UZF-1           

            TOTAL IN =           0.0000              TOTAL IN =           0.0000

          OUT:                                     OUT:
          ----                                     ----
              STO-SS =           0.0000                STO-SS =           0.0000     STORAGE         
              STO-SY =           0.0000                STO-SY =           0.0000     STORAGE         
                 CHD =           0.0000                   CHD =           0.0000     CHD-1           
           UZF-GWRCH =           0.0000             UZF-GWRCH =           0.0000     UZF-1           
             UZF-GWD =           0.0000               UZF-GWD =           0.0000     UZF-1           
            UZF-GWET =           0.0000              UZF-GWET =           0.0000     UZF-1           

           TOTAL OUT =           0.0000             TOTAL OUT =           0.0000

            IN - OUT =           0.0000              IN - OUT =           0.0000

 PERCENT DISCREPANCY =           0.00     PERCENT DISCREPANCY =           0.00




         TIME SUMMARY AT END OF TIME STEP    2 IN STRESS PERIOD    4
                    SECONDS     MINUTES      HOURS       DAYS        YEARS
                    -----------------------------------------------------------
   TIME STEP LENGTH 4.32000E+06  72000.      1200.0      50.000     0.13689    
 STRESS PERIOD TIME 8.64000E+06 1.44000E+05  2400.0      100.00     0.27379    
         TOTAL TIME 1.38240E+07 2.30400E+05  3840.0      160.00     0.43806    


end timestep


start timestep kper="4" kstp="3" mode="normal"

 UBDSV1 SAVING     FLOW-JA-FACE ON UNIT   1020 AT TIME STEP      3, STRESS PERIOD      4
 UBDSV06 SAVING     FLOW-JA-FACE IN MODEL GWF_1            PACKAGE UZF-1           CONNECTED TO MODEL GWF_1            PACKAGE UZF-1            ON UNIT   1014 AT TIME STEP      3, STRESS PERIOD      4
 UBDSV06 SAVING              GWF IN MODEL GWF_1            PACKAGE UZF-1           CONNECTED TO MODEL GWF_1            PACKAGE GWF_1            ON UNIT   1014 AT TIME STEP      3, STRESS PERIOD      4
 UBDSV06 SAVING     INFILTRATION IN MODEL GWF_1            PACKAGE UZF-1           CONNECTED TO MODEL GWF_1            PACKAGE UZF-1            ON UNIT   1014 AT TIME STEP      3, STRESS PERIOD      4
 UBDSV06 SAVING          REJ-INF IN MODEL GWF_1            PACKAGE UZF-1           CONNECTED TO MODEL GWF_1            PACKAGE UZF-1            ON UNIT   1014 AT TIME STEP      3, STRESS PERIOD      4
 UBDSV06 SAVING             UZET IN MODEL GWF_1            PACKAGE UZF-1           CONNECTED TO MODEL GWF_1            PACKAGE UZF-1            ON UNIT   1014 AT TIME STEP      3, STRESS PERIOD      4
 UBDSV06 SAVING          STORAGE IN MODEL GWF_1            PACKAGE UZF-1           CONNECTED TO MODEL GWF_1            PACKAGE UZF-1            ON UNIT   1014 AT TIME STEP      3, STRESS PERIOD      4

 CHD PACKAGE (CHD-1) FLOW RATES   PERIOD      4   STEP        3
 -----------------------------------------------
   NUMBER   CELLID                    RATE      
 -----------------------------------------------
     1      (3,1,1)               0.0000000     
     2      (3,1,10)              0.0000000     
 -----------------------------------------------




 UZF-GWRCH PACKAGE (UZF-1) FLOW RATES   PERIOD      4   STEP        3
 ----------------------------------------------------------------------------------------
   NUMBER   CELLID                    RATE       NAME                                    
 ----------------------------------------------------------------------------------------
     1      (1,1,2)               0.0000000      UZF01                                   
     2      (1,1,3)               0.0000000      UZF02                                   
     3      (1,1,4)               0.0000000      UZF03                                   
     4      (1,1,5)               0.0000000      UZF04                                   
     5      (1,1,6)               0.0000000      UZF05                                   
     6      (1,1,7)               0.0000000      UZF06                                   
     7      (1,1,8)               0.0000000      UZF07                                   
     8      (1,1,9)               0.0000000      UZF08                                   
     9      (2,1,2)               0.0000000      UZF08                                   
     10     (2,1,3)               0.0000000      UZF10                                   
     11     (2,1,4)               0.0000000      UZF11                                   
     12     (2,1,5)               0.0000000      UZF12                                   
     13     (2,1,6)               0.0000000      UZF13                                   
     14     (2,1,7)               0.0000000      UZF14                                   
     15     (2,1,8)               0.0000000      UZF15                                   
     16     (2,1,9)               0.0000000      UZF16                                   
     17     (3,1,2)               0.0000000      UZF17                                   
     18     (3,1,3)               0.0000000      UZF18                                   
     19     (3,1,4)               0.0000000      UZF19                                   
     20     (3,1,5)               0.0000000      UZF20                                   
     21     (3,1,6)               0.0000000      UZF21                                   
     22     (3,1,7)               0.0000000      UZF22                                   
     23     (3,1,8)               0.0000000      UZF23                                   
     24     (3,1,9)               0.0000000      UZF24                                   
 ----------------------------------------------------------------------------------------




 UZF-GWD PACKAGE (UZF-1) FLOW RATES   PERIOD      4   STEP        3
 ----------------------------------------------------------------------------------------
   NUMBER   CELLID                    RATE       NAME                                    
 ----------------------------------------------------------------------------------------
     1      (1,1,2)               0.0000000      UZF01                                   
     2      (1,1,3)               0.0000000      UZF02                                   
     3      (1,1,4)               0.0000000      UZF03                                   
     4      (1,1,5)               0.0000000      UZF04                                   
     5      (1,1,6)               0.0000000      UZF05                                   
     6      (1,1,7)               0.0000000      UZF06                                   
     7      (1,1,8)               0.0000000      UZF07                                   
     8      (1,1,9)               0.0000000      UZF08                                   
     9      (2,1,2)               0.0000000      UZF08                                   
     10     (2,1,3)               0.0000000      UZF10                                   
     11     (2,1,4)               0.0000000      UZF11                                   
     12     (2,1,5)               0.0000000      UZF12                                   
     13     (2,1,6)               0.0000000      UZF13                                   
     14     (2,1,7)               0.0000000      UZF14                                   
     15     (2,1,8)               0.0000000      UZF15                                   
     16     (2,1,9)               0.0000000      UZF16                                   
     17     (3,1,2)               0.0000000      UZF17                                   
     18     (3,1,3)               0.0000000      UZF18                                   
     19     (3,1,4)               0.0000000      UZF19                                   
     20     (3,1,5)               0.0000000      UZF20                                   
     21     (3,1,6)               0.0000000      UZF21                                   
     22     (3,1,7)               0.0000000      UZF22                                   
     23     (3,1,8)               0.0000000      UZF23                                   
     24     (3,1,9)               0.0000000      UZF24                                   
 ----------------------------------------------------------------------------------------




 UZF-GWET PACKAGE (UZF-1) FLOW RATES   PERIOD      4   STEP        3
 ----------------------------------------------------------------------------------------
   NUMBER   CELLID                    RATE       NAME                                    
 ----------------------------------------------------------------------------------------
     1      (1,1,2)               0.0000000      UZF01                                   
     2      (1,1,3)               0.0000000      UZF02                                   
     3      (1,1,4)               0.0000000      UZF03                                   
     4      (1,1,5)               0.0000000      UZF04                                   
     5      (1,1,6)               0.0000000      UZF05                                   
     6      (1,1,7)               0.0000000      UZF06                                   
     7      (1,1,8)               0.0000000      UZF07                                   
     8      (1,1,9)               0.0000000      UZF08                                   
     9      (2,1,2)               0.0000000      UZF08                                   
     10     (2,1,3)               0.0000000      UZF10                                   
     11     (2,1,4)               0.0000000      UZF11                                   
     12     (2,1,5)               0.0000000      UZF12                                   
     13     (2,1,6)               0.0000000      UZF13                                   
     14     (2,1,7)               0.0000000      UZF14                                   
     15     (2,1,8)               0.0000000      UZF15                                   
     16     (2,1,9)               0.0000000      UZF16                                   
     17     (3,1,2)               0.0000000      UZF17                                   
     18     (3,1,3)               0.0000000      UZF18                                   
     19     (3,1,4)               0.0000000      UZF19                                   
     20     (3,1,5)               0.0000000      UZF20                                   
     21     (3,1,6)               0.0000000      UZF21                                   
     22     (3,1,7)               0.0000000      UZF22                                   
     23     (3,1,8)               0.0000000      UZF23                                   
     24     (3,1,9)               0.0000000      UZF24                                   
 ----------------------------------------------------------------------------------------




 UZF-1 PACKAGE - SUMMARY OF FLOWS FOR EACH CONTROL VOLUME   PERIOD      4   STEP        3
 ----------------------------------------------------------------------------------------------------------------------------------------------------
                                                                                                                                           PERCENT   
   NUMBER   CELLID                  INFLOW      OUTFLOW        GWF      INFILTRATION   REJ INF        UZET       STORAGE      IN - OUT    DIFFERENCE 
 ----------------------------------------------------------------------------------------------------------------------------------------------------
     1      (1,1,2)               0.0000      -47.470       0.0000       0.0000       0.0000      -2.10507E-02  47.498       6.27406E-03  1.32101E-02
     2      (1,1,3)               0.0000      -47.470       0.0000       0.0000       0.0000      -2.10507E-02  47.498       6.27406E-03  1.32101E-02
     3      (1,1,4)               0.0000      -47.470       0.0000       0.0000       0.0000      -2.10507E-02  47.498       6.27406E-03  1.32101E-02
     4      (1,1,5)               0.0000      -47.470       0.0000       0.0000       0.0000      -2.10507E-02  47.498       6.27406E-03  1.32101E-02
     5      (1,1,6)               0.0000      -47.470       0.0000       0.0000       0.0000      -2.10507E-02  47.498       6.27406E-03  1.32101E-02
     6      (1,1,7)               0.0000      -47.470       0.0000       0.0000       0.0000      -2.10507E-02  47.498       6.27406E-03  1.32101E-02
     7      (1,1,8)               0.0000      -47.470       0.0000       0.0000       0.0000      -2.10507E-02  47.498       6.27406E-03  1.32101E-02
     8      (1,1,9)               0.0000      -47.470       0.0000       0.0000       0.0000      -2.10507E-02  47.498       6.27406E-03  1.32101E-02
     9      (2,1,2)               47.470       0.0000       0.0000       0.0000       0.0000      -4.99671E-02 -47.420       4.34600E-06  9.15521E-06
     10     (2,1,3)               47.470       0.0000       0.0000       0.0000       0.0000      -4.99671E-02 -47.420       4.34600E-06  9.15521E-06
     11     (2,1,4)               47.470       0.0000       0.0000       0.0000       0.0000      -4.99671E-02 -47.420       4.34600E-06  9.15521E-06
     12     (2,1,5)               47.470       0.0000       0.0000       0.0000       0.0000      -4.99671E-02 -47.420       4.34600E-06  9.15521E-06
     13     (2,1,6)               47.470       0.0000       0.0000       0.0000       0.0000      -4.99671E-02 -47.420       4.34600E-06  9.15521E-06
     14     (2,1,7)               47.470       0.0000       0.0000       0.0000       0.0000      -4.99671E-02 -47.420       4.34600E-06  9.15521E-06
     15     (2,1,8)               47.470       0.0000       0.0000       0.0000       0.0000      -4.99671E-02 -47.420       4.34600E-06  9.15521E-06
     16     (2,1,9)               47.470       0.0000       0.0000       0.0000       0.0000      -4.99671E-02 -47.420       4.34600E-06  9.15521E-06
     17     (3,1,2)               0.0000       0.0000       0.0000       0.0000       0.0000       0.0000       0.0000       0.0000       0.0000     
     18     (3,1,3)               0.0000       0.0000       0.0000       0.0000       0.0000       0.0000       0.0000       0.0000       0.0000     
     19     (3,1,4)               0.0000       0.0000       0.0000       0.0000       0.0000       0.0000       0.0000       0.0000       0.0000     
     20     (3,1,5)               0.0000       0.0000       0.0000       0.0000       0.0000       0.0000       0.0000       0.0000       0.0000     
     21     (3,1,6)               0.0000       0.0000       0.0000       0.0000       0.0000       0.0000       0.0000       0.0000       0.0000     
     22     (3,1,7)               0.0000       0.0000       0.0000       0.0000       0.0000       0.0000       0.0000       0.0000       0.0000     
     23     (3,1,8)               0.0000       0.0000       0.0000       0.0000       0.0000       0.0000       0.0000       0.0000       0.0000     
     24     (3,1,9)               0.0000       0.0000       0.0000       0.0000       0.0000       0.0000       0.0000       0.0000       0.0000     
 ----------------------------------------------------------------------------------------------------------------------------------------------------


1
  HEAD IN LAYER   1 AT END OF TIME STEP   3 IN STRESS PERIOD    4
  ---------------------------------------------------------------------------

            1           2           3           4           5           6           7           8           9          10
 ........................................................................................................................
   1   -25.00      -25.00      -25.00      -25.00      -25.00      -25.00      -25.00      -25.00      -25.00      -25.00    
1
  HEAD IN LAYER   2 AT END OF TIME STEP   3 IN STRESS PERIOD    4
  ---------------------------------------------------------------------------

            1           2           3           4           5           6           7           8           9          10
 ........................................................................................................................
   1   -25.00      -25.00      -25.00      -25.00      -25.00      -25.00      -25.00      -25.00      -25.00      -25.00    
1
  HEAD IN LAYER   3 AT END OF TIME STEP   3 IN STRESS PERIOD    4
  ---------------------------------------------------------------------------

            1           2           3           4           5           6           7           8           9          10
 ........................................................................................................................
   1   -25.00      -25.00      -25.00      -25.00      -25.00      -25.00      -25.00      -25.00      -25.00      -25.00    

 HEAD WILL BE SAVED ON UNIT 1022 AT END OF TIME STEP    3, STRESS PERIOD    4


  UZF-1 BUDGET FOR ENTIRE MODEL AT END OF TIME STEP    3, STRESS PERIOD   4
  ------------------------------------------------------------------------------

     CUMULATIVE UZF-1      L**3       RATES FOR THIS TIME STEP      L**3/T
     ------------------                 ------------------------

           IN:                                      IN:
           ---                                      ---
                 GWF =           0.0000                   GWF =           0.0000
        INFILTRATION =      480000.0000          INFILTRATION =           0.0000
             REJ-INF =           0.0000               REJ-INF =           0.0000
                UZET =           0.0000                  UZET =           0.0000
             STORAGE =      239774.6181               STORAGE =         379.9805

            TOTAL IN =      719774.6181              TOTAL IN =         379.9805

          OUT:                                     OUT:
          ----                                     ----
                 GWF =           0.0000                   GWF =           0.0000
        INFILTRATION =           0.0000          INFILTRATION =           0.0000
             REJ-INF =           0.0000               REJ-INF =           0.0000
                UZET =          93.3855                  UZET =           0.5681
             STORAGE =      719677.4527               STORAGE =         379.3621

           TOTAL OUT =      719770.8382             TOTAL OUT =         379.9302

            IN - OUT =           3.7799              IN - OUT =       5.0227E-02

 PERCENT DISCREPANCY =           0.00     PERCENT DISCREPANCY =           0.01



  VOLUME BUDGET FOR ENTIRE MODEL AT END OF TIME STEP    3, STRESS PERIOD   4
  ---------------------------------------------------------------------------------------------------

     CUMULATIVE VOLUME      L**3       RATES FOR THIS TIME STEP      L**3/T          PACKAGE NAME    
     ------------------                 ------------------------                     ----------------

           IN:                                      IN:
           ---                                      ---
              STO-SS =           0.0000                STO-SS =           0.0000     STORAGE         
              STO-SY =           0.0000                STO-SY =           0.0000     STORAGE         
                 CHD =           0.0000                   CHD =           0.0000     CHD-1           
           UZF-GWRCH =           0.0000             UZF-GWRCH =           0.0000     UZF-1           
             UZF-GWD =           0.0000               UZF-GWD =           0.0000     UZF-1           
            UZF-GWET =           0.0000              UZF-GWET =           0.0000     UZF-1           

            TOTAL IN =           0.0000              TOTAL IN =           0.0000

          OUT:                                     OUT:
          ----                                     ----
              STO-SS =           0.0000                STO-SS =           0.0000     STORAGE         
              STO-SY =           0.0000                STO-SY =           0.0000     STORAGE         
                 CHD =           0.0000                   CHD =           0.0000     CHD-1           
           UZF-GWRCH =           0.0000             UZF-GWRCH =           0.0000     UZF-1           
             UZF-GWD =           0.0000               UZF-GWD =           0.0000     UZF-1           
            UZF-GWET =           0.0000              UZF-GWET =           0.0000     UZF-1           

           TOTAL OUT =           0.0000             TOTAL OUT =           0.0000

            IN - OUT =           0.0000              IN - OUT =           0.0000

 PERCENT DISCREPANCY =           0.00     PERCENT DISCREPANCY =           0.00




         TIME SUMMARY AT END OF TIME STEP    3 IN STRESS PERIOD    4
                    SECONDS     MINUTES      HOURS       DAYS        YEARS
                    -----------------------------------------------------------
   TIME STEP LENGTH 4.32000E+06  72000.      1200.0      50.000     0.13689    
 STRESS PERIOD TIME 1.29600E+07 2.16000E+05  3600.0      150.00     0.41068    
         TOTAL TIME 1.81440E+07 3.02400E+05  5040.0      210.00     0.57495    


end timestep


start timestep kper="4" kstp="4" mode="normal"

 UBDSV1 SAVING     FLOW-JA-FACE ON UNIT   1020 AT TIME STEP      4, STRESS PERIOD      4
 UBDSV06 SAVING     FLOW-JA-FACE IN MODEL GWF_1            PACKAGE UZF-1           CONNECTED TO MODEL GWF_1            PACKAGE UZF-1            ON UNIT   1014 AT TIME STEP      4, STRESS PERIOD      4
 UBDSV06 SAVING              GWF IN MODEL GWF_1            PACKAGE UZF-1           CONNECTED TO MODEL GWF_1            PACKAGE GWF_1            ON UNIT   1014 AT TIME STEP      4, STRESS PERIOD      4
 UBDSV06 SAVING     INFILTRATION IN MODEL GWF_1            PACKAGE UZF-1           CONNECTED TO MODEL GWF_1            PACKAGE UZF-1            ON UNIT   1014 AT TIME STEP      4, STRESS PERIOD      4
 UBDSV06 SAVING          REJ-INF IN MODEL GWF_1            PACKAGE UZF-1           CONNECTED TO MODEL GWF_1            PACKAGE UZF-1            ON UNIT   1014 AT TIME STEP      4, STRESS PERIOD      4
 UBDSV06 SAVING             UZET IN MODEL GWF_1            PACKAGE UZF-1           CONNECTED TO MODEL GWF_1            PACKAGE UZF-1            ON UNIT   1014 AT TIME STEP      4, STRESS PERIOD      4
 UBDSV06 SAVING          STORAGE IN MODEL GWF_1            PACKAGE UZF-1           CONNECTED TO MODEL GWF_1            PACKAGE UZF-1            ON UNIT   1014 AT TIME STEP      4, STRESS PERIOD      4

 CHD PACKAGE (CHD-1) FLOW RATES   PERIOD      4   STEP        4
 -----------------------------------------------
   NUMBER   CELLID                    RATE      
 -----------------------------------------------
     1      (3,1,1)               0.0000000     
     2      (3,1,10)              0.0000000     
 -----------------------------------------------




 UZF-GWRCH PACKAGE (UZF-1) FLOW RATES   PERIOD      4   STEP        4
 ----------------------------------------------------------------------------------------
   NUMBER   CELLID                    RATE       NAME                                    
 ----------------------------------------------------------------------------------------
     1      (1,1,2)               0.0000000      UZF01                                   
     2      (1,1,3)               0.0000000      UZF02                                   
     3      (1,1,4)               0.0000000      UZF03                                   
     4      (1,1,5)               0.0000000      UZF04                                   
     5      (1,1,6)               0.0000000      UZF05                                   
     6      (1,1,7)               0.0000000      UZF06                                   
     7      (1,1,8)               0.0000000      UZF07                                   
     8      (1,1,9)               0.0000000      UZF08                                   
     9      (2,1,2)               0.0000000      UZF08                                   
     10     (2,1,3)               0.0000000      UZF10                                   
     11     (2,1,4)               0.0000000      UZF11                                   
     12     (2,1,5)               0.0000000      UZF12                                   
     13     (2,1,6)               0.0000000      UZF13                                   
     14     (2,1,7)               0.0000000      UZF14                                   
     15     (2,1,8)               0.0000000      UZF15                                   
     16     (2,1,9)               0.0000000      UZF16                                   
     17     (3,1,2)               0.0000000      UZF17                                   
     18     (3,1,3)               0.0000000      UZF18                                   
     19     (3,1,4)               0.0000000      UZF19                                   
     20     (3,1,5)               0.0000000      UZF20                                   
     21     (3,1,6)               0.0000000      UZF21                                   
     22     (3,1,7)               0.0000000      UZF22                                   
     23     (3,1,8)               0.0000000      UZF23                                   
     24     (3,1,9)               0.0000000      UZF24                                   
 ----------------------------------------------------------------------------------------




 UZF-GWD PACKAGE (UZF-1) FLOW RATES   PERIOD      4   STEP        4
 ----------------------------------------------------------------------------------------
   NUMBER   CELLID                    RATE       NAME                                    
 ----------------------------------------------------------------------------------------
     1      (1,1,2)               0.0000000      UZF01                                   
     2      (1,1,3)               0.0000000      UZF02                                   
     3      (1,1,4)               0.0000000      UZF03                                   
     4      (1,1,5)               0.0000000      UZF04                                   
     5      (1,1,6)               0.0000000      UZF05                                   
     6      (1,1,7)               0.0000000      UZF06                                   
     7      (1,1,8)               0.0000000      UZF07                                   
     8      (1,1,9)               0.0000000      UZF08                                   
     9      (2,1,2)               0.0000000      UZF08                                   
     10     (2,1,3)               0.0000000      UZF10                                   
     11     (2,1,4)               0.0000000      UZF11                                   
     12     (2,1,5)               0.0000000      UZF12                                   
     13     (2,1,6)               0.0000000      UZF13                                   
     14     (2,1,7)               0.0000000      UZF14                                   
     15     (2,1,8)               0.0000000      UZF15                                   
     16     (2,1,9)               0.0000000      UZF16                                   
     17     (3,1,2)               0.0000000      UZF17                                   
     18     (3,1,3)               0.0000000      UZF18                                   
     19     (3,1,4)               0.0000000      UZF19                                   
     20     (3,1,5)               0.0000000      UZF20                                   
     21     (3,1,6)               0.0000000      UZF21                                   
     22     (3,1,7)               0.0000000      UZF22                                   
     23     (3,1,8)               0.0000000      UZF23                                   
     24     (3,1,9)               0.0000000      UZF24                                   
 ----------------------------------------------------------------------------------------




 UZF-GWET PACKAGE (UZF-1) FLOW RATES   PERIOD      4   STEP        4
 ----------------------------------------------------------------------------------------
   NUMBER   CELLID                    RATE       NAME                                    
 ----------------------------------------------------------------------------------------
     1      (1,1,2)               0.0000000      UZF01                                   
     2      (1,1,3)               0.0000000      UZF02                                   
     3      (1,1,4)               0.0000000      UZF03                                   
     4      (1,1,5)               0.0000000      UZF04                                   
     5      (1,1,6)               0.0000000      UZF05                                   
     6      (1,1,7)               0.0000000      UZF06                                   
     7      (1,1,8)               0.0000000      UZF07                                   
     8      (1,1,9)               0.0000000      UZF08                                   
     9      (2,1,2)               0.0000000      UZF08                                   
     10     (2,1,3)               0.0000000      UZF10                                   
     11     (2,1,4)               0.0000000      UZF11                                   
     12     (2,1,5)               0.0000000      UZF12                                   
     13     (2,1,6)               0.0000000      UZF13                                   
     14     (2,1,7)               0.0000000      UZF14                                   
     15     (2,1,8)               0.0000000      UZF15                                   
     16     (2,1,9)               0.0000000      UZF16                                   
     17     (3,1,2)               0.0000000      UZF17                                   
     18     (3,1,3)               0.0000000      UZF18                                   
     19     (3,1,4)               0.0000000      UZF19                                   
     20     (3,1,5)               0.0000000      UZF20                                   
     21     (3,1,6)               0.0000000      UZF21                                   
     22     (3,1,7)               0.0000000      UZF22                                   
     23     (3,1,8)               0.0000000      UZF23                                   
     24     (3,1,9)               0.0000000      UZF24                                   
 ----------------------------------------------------------------------------------------




 UZF-1 PACKAGE - SUMMARY OF FLOWS FOR EACH CONTROL VOLUME   PERIOD      4   STEP        4
 ----------------------------------------------------------------------------------------------------------------------------------------------------
                                                                                                                                           PERCENT   
   NUMBER   CELLID                  INFLOW      OUTFLOW        GWF      INFILTRATION   REJ INF        UZET       STORAGE      IN - OUT    DIFFERENCE 
 ----------------------------------------------------------------------------------------------------------------------------------------------------
     1      (1,1,2)               0.0000      -15.308       0.0000       0.0000       0.0000      -1.80676E-02  15.335       9.40833E-03  6.13699E-02
     2      (1,1,3)               0.0000      -15.308       0.0000       0.0000       0.0000      -1.80676E-02  15.335       9.40833E-03  6.13699E-02
     3      (1,1,4)               0.0000      -15.308       0.0000       0.0000       0.0000      -1.80676E-02  15.335       9.40833E-03  6.13699E-02
     4      (1,1,5)               0.0000      -15.308       0.0000       0.0000       0.0000      -1.80676E-02  15.335       9.40833E-03  6.13699E-02
     5      (1,1,6)               0.0000      -15.308       0.0000       0.0000       0.0000      -1.80676E-02  15.335       9.40833E-03  6.13699E-02
     6      (1,1,7)               0.0000      -15.308       0.0000       0.0000       0.0000      -1.80676E-02  15.335       9.40833E-03  6.13699E-02
     7      (1,1,8)               0.0000      -15.308       0.0000       0.0000       0.0000      -1.80676E-02  15.335       9.40833E-03  6.13699E-02
     8      (1,1,9)               0.0000      -15.308       0.0000       0.0000       0.0000      -1.80676E-02  15.335       9.40833E-03  6.13699E-02
     9      (2,1,2)               15.308       0.0000       0.0000       0.0000       0.0000      -5.73527E-02 -15.250       1.90071E-06  1.24166E-05
     10     (2,1,3)               15.308       0.0000       0.0000       0.0000       0.0000      -5.73527E-02 -15.250       1.90071E-06  1.24166E-05
     11     (2,1,4)               15.308       0.0000       0.0000       0.0000       0.0000      -5.73527E-02 -15.250       1.90071E-06  1.24166E-05
     12     (2,1,5)               15.308       0.0000       0.0000       0.0000       0.0000      -5.73527E-02 -15.250       1.90071E-06  1.24166E-05
     13     (2,1,6)               15.308       0.0000       0.0000       0.0000       0.0000      -5.73527E-02 -15.250       1.90071E-06  1.24166E-05
     14     (2,1,7)               15.308       0.0000       0.0000       0.0000       0.0000      -5.73527E-02 -15.250       1.90071E-06  1.24166E-05
     15     (2,1,8)               15.308       0.0000       0.0000       0.0000       0.0000      -5.73527E-02 -15.250       1.90071E-06  1.24166E-05
     16     (2,1,9)               15.308       0.0000       0.0000       0.0000       0.0000      -5.73527E-02 -15.250       1.90071E-06  1.24166E-05
     17     (3,1,2)               0.0000       0.0000       0.0000       0.0000       0.0000       0.0000       0.0000       0.0000       0.0000     
     18     (3,1,3)               0.0000       0.0000       0.0000       0.0000       0.0000       0.0000       0.0000       0.0000       0.0000     
     19     (3,1,4)               0.0000       0.0000       0.0000       0.0000       0.0000       0.0000       0.0000       0.0000       0.0000     
     20     (3,1,5)               0.0000       0.0000       0.0000       0.0000       0.0000       0.0000       0.0000       0.0000       0.0000     
     21     (3,1,6)               0.0000       0.0000       0.0000       0.0000       0.0000       0.0000       0.0000       0.0000       0.0000     
     22     (3,1,7)               0.0000       0.0000       0.0000       0.0000       0.0000       0.0000       0.0000       0.0000       0.0000     
     23     (3,1,8)               0.0000       0.0000       0.0000       0.0000       0.0000       0.0000       0.0000       0.0000       0.0000     
     24     (3,1,9)               0.0000       0.0000       0.0000       0.0000       0.0000       0.0000       0.0000       0.0000       0.0000     
 ----------------------------------------------------------------------------------------------------------------------------------------------------


1
  HEAD IN LAYER   1 AT END OF TIME STEP   4 IN STRESS PERIOD    4
  ---------------------------------------------------------------------------

            1           2           3           4           5           6           7           8           9          10
 ........................................................................................................................
   1   -25.00      -25.00      -25.00      -25.00      -25.00      -25.00      -25.00      -25.00      -25.00      -25.00    
1
  HEAD IN LAYER   2 AT END OF TIME STEP   4 IN STRESS PERIOD    4
  ---------------------------------------------------------------------------

            1           2           3           4           5           6           7           8           9          10
 ........................................................................................................................
   1   -25.00      -25.00      -25.00      -25.00      -25.00      -25.00      -25.00      -25.00      -25.00      -25.00    
1
  HEAD IN LAYER   3 AT END OF TIME STEP   4 IN STRESS PERIOD    4
  ---------------------------------------------------------------------------

            1           2           3           4           5           6           7           8           9          10
 ........................................................................................................................
   1   -25.00      -25.00      -25.00      -25.00      -25.00      -25.00      -25.00      -25.00      -25.00      -25.00    

 HEAD WILL BE SAVED ON UNIT 1022 AT END OF TIME STEP    4, STRESS PERIOD    4


  UZF-1 BUDGET FOR ENTIRE MODEL AT END OF TIME STEP    4, STRESS PERIOD   4
  ------------------------------------------------------------------------------

     CUMULATIVE UZF-1      L**3       RATES FOR THIS TIME STEP      L**3/T
     ------------------                 ------------------------

           IN:                                      IN:
           ---                                      ---
                 GWF =           0.0000                   GWF =           0.0000
        INFILTRATION =      480000.0000          INFILTRATION =           0.0000
             REJ-INF =           0.0000               REJ-INF =           0.0000
                UZET =           0.0000                  UZET =           0.0000
             STORAGE =      245908.7100               STORAGE =         122.6818

            TOTAL IN =      725908.7100              TOTAL IN =         122.6818

          OUT:                                     OUT:
          ----                                     ----
                 GWF =           0.0000                   GWF =           0.0000
        INFILTRATION =           0.0000          INFILTRATION =           0.0000
             REJ-INF =           0.0000               REJ-INF =           0.0000
                UZET =         123.5536                  UZET =           0.6034
             STORAGE =      725777.6125               STORAGE =         122.0032

           TOTAL OUT =      725901.1661             TOTAL OUT =         122.6066

            IN - OUT =           7.5440              IN - OUT =       7.5282E-02

 PERCENT DISCREPANCY =           0.00     PERCENT DISCREPANCY =           0.06



  VOLUME BUDGET FOR ENTIRE MODEL AT END OF TIME STEP    4, STRESS PERIOD   4
  ---------------------------------------------------------------------------------------------------

     CUMULATIVE VOLUME      L**3       RATES FOR THIS TIME STEP      L**3/T          PACKAGE NAME    
     ------------------                 ------------------------                     ----------------

           IN:                                      IN:
           ---                                      ---
              STO-SS =           0.0000                STO-SS =           0.0000     STORAGE         
              STO-SY =           0.0000                STO-SY =           0.0000     STORAGE         
                 CHD =           0.0000                   CHD =           0.0000     CHD-1           
           UZF-GWRCH =           0.0000             UZF-GWRCH =           0.0000     UZF-1           
             UZF-GWD =           0.0000               UZF-GWD =           0.0000     UZF-1           
            UZF-GWET =           0.0000              UZF-GWET =           0.0000     UZF-1           

            TOTAL IN =           0.0000              TOTAL IN =           0.0000

          OUT:                                     OUT:
          ----                                     ----
              STO-SS =           0.0000                STO-SS =           0.0000     STORAGE         
              STO-SY =           0.0000                STO-SY =           0.0000     STORAGE         
                 CHD =           0.0000                   CHD =           0.0000     CHD-1           
           UZF-GWRCH =           0.0000             UZF-GWRCH =           0.0000     UZF-1           
             UZF-GWD =           0.0000               UZF-GWD =           0.0000     UZF-1           
            UZF-GWET =           0.0000              UZF-GWET =           0.0000     UZF-1           

           TOTAL OUT =           0.0000             TOTAL OUT =           0.0000

            IN - OUT =           0.0000              IN - OUT =           0.0000

 PERCENT DISCREPANCY =           0.00     PERCENT DISCREPANCY =           0.00




         TIME SUMMARY AT END OF TIME STEP    4 IN STRESS PERIOD    4
                    SECONDS     MINUTES      HOURS       DAYS        YEARS
                    -----------------------------------------------------------
   TIME STEP LENGTH 4.32000E+06  72000.      1200.0      50.000     0.13689    
 STRESS PERIOD TIME 1.72800E+07 2.88000E+05  4800.0      200.00     0.54757    
         TOTAL TIME 2.24640E+07 3.74400E+05  6240.0      260.00     0.71184    


end timestep


start timestep kper="4" kstp="5" mode="normal"

 UBDSV1 SAVING     FLOW-JA-FACE ON UNIT   1020 AT TIME STEP      5, STRESS PERIOD      4
 UBDSV06 SAVING     FLOW-JA-FACE IN MODEL GWF_1            PACKAGE UZF-1           CONNECTED TO MODEL GWF_1            PACKAGE UZF-1            ON UNIT   1014 AT TIME STEP      5, STRESS PERIOD      4
 UBDSV06 SAVING              GWF IN MODEL GWF_1            PACKAGE UZF-1           CONNECTED TO MODEL GWF_1            PACKAGE GWF_1            ON UNIT   1014 AT TIME STEP      5, STRESS PERIOD      4
 UBDSV06 SAVING     INFILTRATION IN MODEL GWF_1            PACKAGE UZF-1           CONNECTED TO MODEL GWF_1            PACKAGE UZF-1            ON UNIT   1014 AT TIME STEP      5, STRESS PERIOD      4
 UBDSV06 SAVING          REJ-INF IN MODEL GWF_1            PACKAGE UZF-1           CONNECTED TO MODEL GWF_1            PACKAGE UZF-1            ON UNIT   1014 AT TIME STEP      5, STRESS PERIOD      4
 UBDSV06 SAVING             UZET IN MODEL GWF_1            PACKAGE UZF-1           CONNECTED TO MODEL GWF_1            PACKAGE UZF-1            ON UNIT   1014 AT TIME STEP      5, STRESS PERIOD      4
 UBDSV06 SAVING          STORAGE IN MODEL GWF_1            PACKAGE UZF-1           CONNECTED TO MODEL GWF_1            PACKAGE UZF-1            ON UNIT   1014 AT TIME STEP      5, STRESS PERIOD      4

 CHD PACKAGE (CHD-1) FLOW RATES   PERIOD      4   STEP        5
 -----------------------------------------------
   NUMBER   CELLID                    RATE      
 -----------------------------------------------
     1      (3,1,1)               0.0000000     
     2      (3,1,10)              0.0000000     
 -----------------------------------------------




 UZF-GWRCH PACKAGE (UZF-1) FLOW RATES   PERIOD      4   STEP        5
 ----------------------------------------------------------------------------------------
   NUMBER   CELLID                    RATE       NAME                                    
 ----------------------------------------------------------------------------------------
     1      (1,1,2)               0.0000000      UZF01                                   
     2      (1,1,3)               0.0000000      UZF02                                   
     3      (1,1,4)               0.0000000      UZF03                                   
     4      (1,1,5)               0.0000000      UZF04                                   
     5      (1,1,6)               0.0000000      UZF05                                   
     6      (1,1,7)               0.0000000      UZF06                                   
     7      (1,1,8)               0.0000000      UZF07                                   
     8      (1,1,9)               0.0000000      UZF08                                   
     9      (2,1,2)               0.0000000      UZF08                                   
     10     (2,1,3)               0.0000000      UZF10                                   
     11     (2,1,4)               0.0000000      UZF11                                   
     12     (2,1,5)               0.0000000      UZF12                                   
     13     (2,1,6)               0.0000000      UZF13                                   
     14     (2,1,7)               0.0000000      UZF14                                   
     15     (2,1,8)               0.0000000      UZF15                                   
     16     (2,1,9)               0.0000000      UZF16                                   
     17     (3,1,2)               0.0000000      UZF17                                   
     18     (3,1,3)               0.0000000      UZF18                                   
     19     (3,1,4)               0.0000000      UZF19                                   
     20     (3,1,5)               0.0000000      UZF20                                   
     21     (3,1,6)               0.0000000      UZF21                                   
     22     (3,1,7)               0.0000000      UZF22                                   
     23     (3,1,8)               0.0000000      UZF23                                   
     24     (3,1,9)               0.0000000      UZF24                                   
 ----------------------------------------------------------------------------------------




 UZF-GWD PACKAGE (UZF-1) FLOW RATES   PERIOD      4   STEP        5
 ----------------------------------------------------------------------------------------
   NUMBER   CELLID                    RATE       NAME                                    
 ----------------------------------------------------------------------------------------
     1      (1,1,2)               0.0000000      UZF01                                   
     2      (1,1,3)               0.0000000      UZF02                                   
     3      (1,1,4)               0.0000000      UZF03                                   
     4      (1,1,5)               0.0000000      UZF04                                   
     5      (1,1,6)               0.0000000      UZF05                                   
     6      (1,1,7)               0.0000000      UZF06                                   
     7      (1,1,8)               0.0000000      UZF07                                   
     8      (1,1,9)               0.0000000      UZF08                                   
     9      (2,1,2)               0.0000000      UZF08                                   
     10     (2,1,3)               0.0000000      UZF10                                   
     11     (2,1,4)               0.0000000      UZF11                                   
     12     (2,1,5)               0.0000000      UZF12                                   
     13     (2,1,6)               0.0000000      UZF13                                   
     14     (2,1,7)               0.0000000      UZF14                                   
     15     (2,1,8)               0.0000000      UZF15                                   
     16     (2,1,9)               0.0000000      UZF16                                   
     17     (3,1,2)               0.0000000      UZF17                                   
     18     (3,1,3)               0.0000000      UZF18                                   
     19     (3,1,4)               0.0000000      UZF19                                   
     20     (3,1,5)               0.0000000      UZF20                                   
     21     (3,1,6)               0.0000000      UZF21                                   
     22     (3,1,7)               0.0000000      UZF22                                   
     23     (3,1,8)               0.0000000      UZF23                                   
     24     (3,1,9)               0.0000000      UZF24                                   
 ----------------------------------------------------------------------------------------




 UZF-GWET PACKAGE (UZF-1) FLOW RATES   PERIOD      4   STEP        5
 ----------------------------------------------------------------------------------------
   NUMBER   CELLID                    RATE       NAME                                    
 ----------------------------------------------------------------------------------------
     1      (1,1,2)               0.0000000      UZF01                                   
     2      (1,1,3)               0.0000000      UZF02                                   
     3      (1,1,4)               0.0000000      UZF03                                   
     4      (1,1,5)               0.0000000      UZF04                                   
     5      (1,1,6)               0.0000000      UZF05                                   
     6      (1,1,7)               0.0000000      UZF06                                   
     7      (1,1,8)               0.0000000      UZF07                                   
     8      (1,1,9)               0.0000000      UZF08                                   
     9      (2,1,2)               0.0000000      UZF08                                   
     10     (2,1,3)               0.0000000      UZF10                                   
     11     (2,1,4)               0.0000000      UZF11                                   
     12     (2,1,5)               0.0000000      UZF12                                   
     13     (2,1,6)               0.0000000      UZF13                                   
     14     (2,1,7)               0.0000000      UZF14                                   
     15     (2,1,8)               0.0000000      UZF15                                   
     16     (2,1,9)               0.0000000      UZF16                                   
     17     (3,1,2)               0.0000000      UZF17                                   
     18     (3,1,3)               0.0000000      UZF18                                   
     19     (3,1,4)               0.0000000      UZF19                                   
     20     (3,1,5)               0.0000000      UZF20                                   
     21     (3,1,6)               0.0000000      UZF21                                   
     22     (3,1,7)               0.0000000      UZF22                                   
     23     (3,1,8)               0.0000000      UZF23                                   
     24     (3,1,9)               0.0000000      UZF24                                   
 ----------------------------------------------------------------------------------------




 UZF-1 PACKAGE - SUMMARY OF FLOWS FOR EACH CONTROL VOLUME   PERIOD      4   STEP        5
 ----------------------------------------------------------------------------------------------------------------------------------------------------
                                                                                                                                           PERCENT   
   NUMBER   CELLID                  INFLOW      OUTFLOW        GWF      INFILTRATION   REJ INF        UZET       STORAGE      IN - OUT    DIFFERENCE 
 ----------------------------------------------------------------------------------------------------------------------------------------------------
     1      (1,1,2)               0.0000      -15.302       0.0000       0.0000       0.0000      -1.50844E-02  15.329       1.25408E-02  8.18429E-02
     2      (1,1,3)               0.0000      -15.302       0.0000       0.0000       0.0000      -1.50844E-02  15.329       1.25408E-02  8.18429E-02
     3      (1,1,4)               0.0000      -15.302       0.0000       0.0000       0.0000      -1.50844E-02  15.329       1.25408E-02  8.18429E-02
     4      (1,1,5)               0.0000      -15.302       0.0000       0.0000       0.0000      -1.50844E-02  15.329       1.25408E-02  8.18429E-02
     5      (1,1,6)               0.0000      -15.302       0.0000       0.0000       0.0000      -1.50844E-02  15.329       1.25408E-02  8.18429E-02
     6      (1,1,7)               0.0000      -15.302       0.0000       0.0000       0.0000      -1.50844E-02  15.329       1.25408E-02  8.18429E-02
     7      (1,1,8)               0.0000      -15.302       0.0000       0.0000       0.0000      -1.50844E-02  15.329       1.25408E-02  8.18429E-02
     8      (1,1,9)               0.0000      -15.302       0.0000       0.0000       0.0000      -1.50844E-02  15.329       1.25408E-02  8.18429E-02
     9      (2,1,2)               15.302       0.0000       0.0000       0.0000       0.0000      -5.83361E-02 -15.243       1.77608E-06  1.16071E-05
     10     (2,1,3)               15.302       0.0000       0.0000       0.0000       0.0000      -5.83361E-02 -15.243       1.77608E-06  1.16071E-05
     11     (2,1,4)               15.302       0.0000       0.0000       0.0000       0.0000      -5.83361E-02 -15.243       1.77608E-06  1.16071E-05
     12     (2,1,5)               15.302       0.0000       0.0000       0.0000       0.0000      -5.83361E-02 -15.243       1.77608E-06  1.16071E-05
     13     (2,1,6)               15.302       0.0000       0.0000       0.0000       0.0000      -5.83361E-02 -15.243       1.77608E-06  1.16071E-05
     14     (2,1,7)               15.302       0.0000       0.0000       0.0000       0.0000      -5.83361E-02 -15.243       1.77608E-06  1.16071E-05
     15     (2,1,8)               15.302       0.0000       0.0000       0.0000       0.0000      -5.83361E-02 -15.243       1.77608E-06  1.16071E-05
     16     (2,1,9)               15.302       0.0000       0.0000       0.0000       0.0000      -5.83361E-02 -15.243       1.77608E-06  1.16071E-05
     17     (3,1,2)               0.0000       0.0000       0.0000       0.0000       0.0000       0.0000       0.0000       0.0000       0.0000     
     18     (3,1,3)               0.0000       0.0000       0.0000       0.0000       0.0000       0.0000       0.0000       0.0000       0.0000     
     19     (3,1,4)               0.0000       0.0000       0.0000       0.0000       0.0000       0.0000       0.0000       0.0000       0.0000     
     20     (3,1,5)               0.0000       0.0000       0.0000       0.0000       0.0000       0.0000       0.0000       0.0000       0.0000     
     21     (3,1,6)               0.0000       0.0000       0.0000       0.0000       0.0000       0.0000       0.0000       0.0000       0.0000     
     22     (3,1,7)               0.0000       0.0000       0.0000       0.0000       0.0000       0.0000       0.0000       0.0000       0.0000     
     23     (3,1,8)               0.0000       0.0000       0.0000       0.0000       0.0000       0.0000       0.0000       0.0000       0.0000     
     24     (3,1,9)               0.0000       0.0000       0.0000       0.0000       0.0000       0.0000       0.0000       0.0000       0.0000     
 ----------------------------------------------------------------------------------------------------------------------------------------------------


1
  HEAD IN LAYER   1 AT END OF TIME STEP   5 IN STRESS PERIOD    4
  ---------------------------------------------------------------------------

            1           2           3           4           5           6           7           8           9          10
 ........................................................................................................................
   1   -25.00      -25.00      -25.00      -25.00      -25.00      -25.00      -25.00      -25.00      -25.00      -25.00    
1
  HEAD IN LAYER   2 AT END OF TIME STEP   5 IN STRESS PERIOD    4
  ---------------------------------------------------------------------------

            1           2           3           4           5           6           7           8           9          10
 ........................................................................................................................
   1   -25.00      -25.00      -25.00      -25.00      -25.00      -25.00      -25.00      -25.00      -25.00      -25.00    
1
  HEAD IN LAYER   3 AT END OF TIME STEP   5 IN STRESS PERIOD    4
  ---------------------------------------------------------------------------

            1           2           3           4           5           6           7           8           9          10
 ........................................................................................................................
   1   -25.00      -25.00      -25.00      -25.00      -25.00      -25.00      -25.00      -25.00      -25.00      -25.00    

 HEAD WILL BE SAVED ON UNIT 1022 AT END OF TIME STEP    5, STRESS PERIOD    4


  UZF-1 BUDGET FOR ENTIRE MODEL AT END OF TIME STEP    5, STRESS PERIOD   4
  ------------------------------------------------------------------------------

     CUMULATIVE UZF-1      L**3       RATES FOR THIS TIME STEP      L**3/T
     ------------------                 ------------------------

           IN:                                      IN:
           ---                                      ---
                 GWF =           0.0000                   GWF =           0.0000
        INFILTRATION =      480000.0000          INFILTRATION =           0.0000
             REJ-INF =           0.0000               REJ-INF =           0.0000
                UZET =           0.0000                  UZET =           0.0000
             STORAGE =      252040.4155               STORAGE =         122.6341

            TOTAL IN =      732040.4155              TOTAL IN =         122.6341

          OUT:                                     OUT:
          ----                                     ----
                 GWF =           0.0000                   GWF =           0.0000
        INFILTRATION =           0.0000          INFILTRATION =           0.0000
             REJ-INF =           0.0000               REJ-INF =           0.0000
                UZET =         152.9218                  UZET =           0.5874
             STORAGE =      731874.9327               STORAGE =         121.9464

           TOTAL OUT =      732027.8545             TOTAL OUT =         122.5338

            IN - OUT =          12.5610              IN - OUT =           0.1003

 PERCENT DISCREPANCY =           0.00     PERCENT DISCREPANCY =           0.08



  VOLUME BUDGET FOR ENTIRE MODEL AT END OF TIME STEP    5, STRESS PERIOD   4
  ---------------------------------------------------------------------------------------------------

     CUMULATIVE VOLUME      L**3       RATES FOR THIS TIME STEP      L**3/T          PACKAGE NAME    
     ------------------                 ------------------------                     ----------------

           IN:                                      IN:
           ---                                      ---
              STO-SS =           0.0000                STO-SS =           0.0000     STORAGE         
              STO-SY =           0.0000                STO-SY =           0.0000     STORAGE         
                 CHD =           0.0000                   CHD =           0.0000     CHD-1           
           UZF-GWRCH =           0.0000             UZF-GWRCH =           0.0000     UZF-1           
             UZF-GWD =           0.0000               UZF-GWD =           0.0000     UZF-1           
            UZF-GWET =           0.0000              UZF-GWET =           0.0000     UZF-1           

            TOTAL IN =           0.0000              TOTAL IN =           0.0000

          OUT:                                     OUT:
          ----                                     ----
              STO-SS =           0.0000                STO-SS =           0.0000     STORAGE         
              STO-SY =           0.0000                STO-SY =           0.0000     STORAGE         
                 CHD =           0.0000                   CHD =           0.0000     CHD-1           
           UZF-GWRCH =           0.0000             UZF-GWRCH =           0.0000     UZF-1           
             UZF-GWD =           0.0000               UZF-GWD =           0.0000     UZF-1           
            UZF-GWET =           0.0000              UZF-GWET =           0.0000     UZF-1           

           TOTAL OUT =           0.0000             TOTAL OUT =           0.0000

            IN - OUT =           0.0000              IN - OUT =           0.0000

 PERCENT DISCREPANCY =           0.00     PERCENT DISCREPANCY =           0.00




         TIME SUMMARY AT END OF TIME STEP    5 IN STRESS PERIOD    4
                    SECONDS     MINUTES      HOURS       DAYS        YEARS
                    -----------------------------------------------------------
   TIME STEP LENGTH 4.32000E+06  72000.      1200.0      50.000     0.13689    
 STRESS PERIOD TIME 2.16000E+07 3.60000E+05  6000.0      250.00     0.68446    
         TOTAL TIME 2.67840E+07 4.46400E+05  7440.0      310.00     0.84873    


end timestep


start timestep kper="4" kstp="6" mode="normal"

 UBDSV1 SAVING     FLOW-JA-FACE ON UNIT   1020 AT TIME STEP      6, STRESS PERIOD      4
 UBDSV06 SAVING     FLOW-JA-FACE IN MODEL GWF_1            PACKAGE UZF-1           CONNECTED TO MODEL GWF_1            PACKAGE UZF-1            ON UNIT   1014 AT TIME STEP      6, STRESS PERIOD      4
 UBDSV06 SAVING              GWF IN MODEL GWF_1            PACKAGE UZF-1           CONNECTED TO MODEL GWF_1            PACKAGE GWF_1            ON UNIT   1014 AT TIME STEP      6, STRESS PERIOD      4
 UBDSV06 SAVING     INFILTRATION IN MODEL GWF_1            PACKAGE UZF-1           CONNECTED TO MODEL GWF_1            PACKAGE UZF-1            ON UNIT   1014 AT TIME STEP      6, STRESS PERIOD      4
 UBDSV06 SAVING          REJ-INF IN MODEL GWF_1            PACKAGE UZF-1           CONNECTED TO MODEL GWF_1            PACKAGE UZF-1            ON UNIT   1014 AT TIME STEP      6, STRESS PERIOD      4
 UBDSV06 SAVING             UZET IN MODEL GWF_1            PACKAGE UZF-1           CONNECTED TO MODEL GWF_1            PACKAGE UZF-1            ON UNIT   1014 AT TIME STEP      6, STRESS PERIOD      4
 UBDSV06 SAVING          STORAGE IN MODEL GWF_1            PACKAGE UZF-1           CONNECTED TO MODEL GWF_1            PACKAGE UZF-1            ON UNIT   1014 AT TIME STEP      6, STRESS PERIOD      4

 CHD PACKAGE (CHD-1) FLOW RATES   PERIOD      4   STEP        6
 -----------------------------------------------
   NUMBER   CELLID                    RATE      
 -----------------------------------------------
     1      (3,1,1)               0.0000000     
     2      (3,1,10)              0.0000000     
 -----------------------------------------------




 UZF-GWRCH PACKAGE (UZF-1) FLOW RATES   PERIOD      4   STEP        6
 ----------------------------------------------------------------------------------------
   NUMBER   CELLID                    RATE       NAME                                    
 ----------------------------------------------------------------------------------------
     1      (1,1,2)               0.0000000      UZF01                                   
     2      (1,1,3)               0.0000000      UZF02                                   
     3      (1,1,4)               0.0000000      UZF03                                   
     4      (1,1,5)               0.0000000      UZF04                                   
     5      (1,1,6)               0.0000000      UZF05                                   
     6      (1,1,7)               0.0000000      UZF06                                   
     7      (1,1,8)               0.0000000      UZF07                                   
     8      (1,1,9)               0.0000000      UZF08                                   
     9      (2,1,2)               0.0000000      UZF08                                   
     10     (2,1,3)               0.0000000      UZF10                                   
     11     (2,1,4)               0.0000000      UZF11                                   
     12     (2,1,5)               0.0000000      UZF12                                   
     13     (2,1,6)               0.0000000      UZF13                                   
     14     (2,1,7)               0.0000000      UZF14                                   
     15     (2,1,8)               0.0000000      UZF15                                   
     16     (2,1,9)               0.0000000      UZF16                                   
     17     (3,1,2)               0.0000000      UZF17                                   
     18     (3,1,3)               0.0000000      UZF18                                   
     19     (3,1,4)               0.0000000      UZF19                                   
     20     (3,1,5)               0.0000000      UZF20                                   
     21     (3,1,6)               0.0000000      UZF21                                   
     22     (3,1,7)               0.0000000      UZF22                                   
     23     (3,1,8)               0.0000000      UZF23                                   
     24     (3,1,9)               0.0000000      UZF24                                   
 ----------------------------------------------------------------------------------------




 UZF-GWD PACKAGE (UZF-1) FLOW RATES   PERIOD      4   STEP        6
 ----------------------------------------------------------------------------------------
   NUMBER   CELLID                    RATE       NAME                                    
 ----------------------------------------------------------------------------------------
     1      (1,1,2)               0.0000000      UZF01                                   
     2      (1,1,3)               0.0000000      UZF02                                   
     3      (1,1,4)               0.0000000      UZF03                                   
     4      (1,1,5)               0.0000000      UZF04                                   
     5      (1,1,6)               0.0000000      UZF05                                   
     6      (1,1,7)               0.0000000      UZF06                                   
     7      (1,1,8)               0.0000000      UZF07                                   
     8      (1,1,9)               0.0000000      UZF08                                   
     9      (2,1,2)               0.0000000      UZF08                                   
     10     (2,1,3)               0.0000000      UZF10                                   
     11     (2,1,4)               0.0000000      UZF11                                   
     12     (2,1,5)               0.0000000      UZF12                                   
     13     (2,1,6)               0.0000000      UZF13                                   
     14     (2,1,7)               0.0000000      UZF14                                   
     15     (2,1,8)               0.0000000      UZF15                                   
     16     (2,1,9)               0.0000000      UZF16                                   
     17     (3,1,2)               0.0000000      UZF17                                   
     18     (3,1,3)               0.0000000      UZF18                                   
     19     (3,1,4)               0.0000000      UZF19                                   
     20     (3,1,5)               0.0000000      UZF20                                   
     21     (3,1,6)               0.0000000      UZF21                                   
     22     (3,1,7)               0.0000000      UZF22                                   
     23     (3,1,8)               0.0000000      UZF23                                   
     24     (3,1,9)               0.0000000      UZF24                                   
 ----------------------------------------------------------------------------------------




 UZF-GWET PACKAGE (UZF-1) FLOW RATES   PERIOD      4   STEP        6
 ----------------------------------------------------------------------------------------
   NUMBER   CELLID                    RATE       NAME                                    
 ----------------------------------------------------------------------------------------
     1      (1,1,2)               0.0000000      UZF01                                   
     2      (1,1,3)               0.0000000      UZF02                                   
     3      (1,1,4)               0.0000000      UZF03                                   
     4      (1,1,5)               0.0000000      UZF04                                   
     5      (1,1,6)               0.0000000      UZF05                                   
     6      (1,1,7)               0.0000000      UZF06                                   
     7      (1,1,8)               0.0000000      UZF07                                   
     8      (1,1,9)               0.0000000      UZF08                                   
     9      (2,1,2)               0.0000000      UZF08                                   
     10     (2,1,3)               0.0000000      UZF10                                   
     11     (2,1,4)               0.0000000      UZF11                                   
     12     (2,1,5)               0.0000000      UZF12                                   
     13     (2,1,6)               0.0000000      UZF13                                   
     14     (2,1,7)               0.0000000      UZF14                                   
     15     (2,1,8)               0.0000000      UZF15                                   
     16     (2,1,9)               0.0000000      UZF16                                   
     17     (3,1,2)               0.0000000      UZF17                                   
     18     (3,1,3)               0.0000000      UZF18                                   
     19     (3,1,4)               0.0000000      UZF19                                   
     20     (3,1,5)               0.0000000      UZF20                                   
     21     (3,1,6)               0.0000000      UZF21                                   
     22     (3,1,7)               0.0000000      UZF22                                   
     23     (3,1,8)               0.0000000      UZF23                                   
     24     (3,1,9)               0.0000000      UZF24                                   
 ----------------------------------------------------------------------------------------




 UZF-1 PACKAGE - SUMMARY OF FLOWS FOR EACH CONTROL VOLUME   PERIOD      4   STEP        6
 ----------------------------------------------------------------------------------------------------------------------------------------------------
                                                                                                                                           PERCENT   
   NUMBER   CELLID                  INFLOW      OUTFLOW        GWF      INFILTRATION   REJ INF        UZET       STORAGE      IN - OUT    DIFFERENCE 
 ----------------------------------------------------------------------------------------------------------------------------------------------------
     1      (1,1,2)               0.0000      -15.296       0.0000       0.0000       0.0000      -1.21013E-02  15.323       1.56714E-02  0.10232    
     2      (1,1,3)               0.0000      -15.296       0.0000       0.0000       0.0000      -1.21013E-02  15.323       1.56714E-02  0.10232    
     3      (1,1,4)               0.0000      -15.296       0.0000       0.0000       0.0000      -1.21013E-02  15.323       1.56714E-02  0.10232    
     4      (1,1,5)               0.0000      -15.296       0.0000       0.0000       0.0000      -1.21013E-02  15.323       1.56714E-02  0.10232    
     5      (1,1,6)               0.0000      -15.296       0.0000       0.0000       0.0000      -1.21013E-02  15.323       1.56714E-02  0.10232    
     6      (1,1,7)               0.0000      -15.296       0.0000       0.0000       0.0000      -1.21013E-02  15.323       1.56714E-02  0.10232    
     7      (1,1,8)               0.0000      -15.296       0.0000       0.0000       0.0000      -1.21013E-02  15.323       1.56714E-02  0.10232    
     8      (1,1,9)               0.0000      -15.296       0.0000       0.0000       0.0000      -1.21013E-02  15.323       1.56714E-02  0.10232    
     9      (2,1,2)               15.296       0.0000       0.0000       0.0000       0.0000      -6.15290E-02 -15.234       1.83385E-06  1.19895E-05
     10     (2,1,3)               15.296       0.0000       0.0000       0.0000       0.0000      -6.15290E-02 -15.234       1.83385E-06  1.19895E-05
     11     (2,1,4)               15.296       0.0000       0.0000       0.0000       0.0000      -6.15290E-02 -15.234       1.83385E-06  1.19895E-05
     12     (2,1,5)               15.296       0.0000       0.0000       0.0000       0.0000      -6.15290E-02 -15.234       1.83385E-06  1.19895E-05
     13     (2,1,6)               15.296       0.0000       0.0000       0.0000       0.0000      -6.15290E-02 -15.234       1.83385E-06  1.19895E-05
     14     (2,1,7)               15.296       0.0000       0.0000       0.0000       0.0000      -6.15290E-02 -15.234       1.83385E-06  1.19895E-05
     15     (2,1,8)               15.296       0.0000       0.0000       0.0000       0.0000      -6.15290E-02 -15.234       1.83385E-06  1.19895E-05
     16     (2,1,9)               15.296       0.0000       0.0000       0.0000       0.0000      -6.15290E-02 -15.234       1.83385E-06  1.19895E-05
     17     (3,1,2)               0.0000       0.0000       0.0000       0.0000       0.0000       0.0000       0.0000       0.0000       0.0000     
     18     (3,1,3)               0.0000       0.0000       0.0000       0.0000       0.0000       0.0000       0.0000       0.0000       0.0000     
     19     (3,1,4)               0.0000       0.0000       0.0000       0.0000       0.0000       0.0000       0.0000       0.0000       0.0000     
     20     (3,1,5)               0.0000       0.0000       0.0000       0.0000       0.0000       0.0000       0.0000       0.0000       0.0000     
     21     (3,1,6)               0.0000       0.0000       0.0000       0.0000       0.0000       0.0000       0.0000       0.0000       0.0000     
     22     (3,1,7)               0.0000       0.0000       0.0000       0.0000       0.0000       0.0000       0.0000       0.0000       0.0000     
     23     (3,1,8)               0.0000       0.0000       0.0000       0.0000       0.0000       0.0000       0.0000       0.0000       0.0000     
     24     (3,1,9)               0.0000       0.0000       0.0000       0.0000       0.0000       0.0000       0.0000       0.0000       0.0000     
 ----------------------------------------------------------------------------------------------------------------------------------------------------


1
  HEAD IN LAYER   1 AT END OF TIME STEP   6 IN STRESS PERIOD    4
  ---------------------------------------------------------------------------

            1           2           3           4           5           6           7           8           9          10
 ........................................................................................................................
   1   -25.00      -25.00      -25.00      -25.00      -25.00      -25.00      -25.00      -25.00      -25.00      -25.00    
1
  HEAD IN LAYER   2 AT END OF TIME STEP   6 IN STRESS PERIOD    4
  ---------------------------------------------------------------------------

            1           2           3           4           5           6           7           8           9          10
 ........................................................................................................................
   1   -25.00      -25.00      -25.00      -25.00      -25.00      -25.00      -25.00      -25.00      -25.00      -25.00    
1
  HEAD IN LAYER   3 AT END OF TIME STEP   6 IN STRESS PERIOD    4
  ---------------------------------------------------------------------------

            1           2           3           4           5           6           7           8           9          10
 ........................................................................................................................
   1   -25.00      -25.00      -25.00      -25.00      -25.00      -25.00      -25.00      -25.00      -25.00      -25.00    

 HEAD WILL BE SAVED ON UNIT 1022 AT END OF TIME STEP    6, STRESS PERIOD    4


  UZF-1 BUDGET FOR ENTIRE MODEL AT END OF TIME STEP    6, STRESS PERIOD   4
  ------------------------------------------------------------------------------

     CUMULATIVE UZF-1      L**3       RATES FOR THIS TIME STEP      L**3/T
     ------------------                 ------------------------

           IN:                                      IN:
           ---                                      ---
                 GWF =           0.0000                   GWF =           0.0000
        INFILTRATION =      480000.0000          INFILTRATION =           0.0000
             REJ-INF =           0.0000               REJ-INF =           0.0000
                UZET =           0.0000                  UZET =           0.0000
             STORAGE =      258169.7345               STORAGE =         122.5864

            TOTAL IN =      738169.7345              TOTAL IN =         122.5864

          OUT:                                     OUT:
          ----                                     ----
                 GWF =           0.0000                   GWF =           0.0000
        INFILTRATION =           0.0000          INFILTRATION =           0.0000
             REJ-INF =           0.0000               REJ-INF =           0.0000
                UZET =         182.3739                  UZET =           0.5890
             STORAGE =      737968.5303               STORAGE =         121.8720

           TOTAL OUT =      738150.9043             TOTAL OUT =         122.4610

            IN - OUT =          18.8303              IN - OUT =           0.1254

 PERCENT DISCREPANCY =           0.00     PERCENT DISCREPANCY =           0.10



  VOLUME BUDGET FOR ENTIRE MODEL AT END OF TIME STEP    6, STRESS PERIOD   4
  ---------------------------------------------------------------------------------------------------

     CUMULATIVE VOLUME      L**3       RATES FOR THIS TIME STEP      L**3/T          PACKAGE NAME    
     ------------------                 ------------------------                     ----------------

           IN:                                      IN:
           ---                                      ---
              STO-SS =           0.0000                STO-SS =           0.0000     STORAGE         
              STO-SY =           0.0000                STO-SY =           0.0000     STORAGE         
                 CHD =           0.0000                   CHD =           0.0000     CHD-1           
           UZF-GWRCH =           0.0000             UZF-GWRCH =           0.0000     UZF-1           
             UZF-GWD =           0.0000               UZF-GWD =           0.0000     UZF-1           
            UZF-GWET =           0.0000              UZF-GWET =           0.0000     UZF-1           

            TOTAL IN =           0.0000              TOTAL IN =           0.0000

          OUT:                                     OUT:
          ----                                     ----
              STO-SS =           0.0000                STO-SS =           0.0000     STORAGE         
              STO-SY =           0.0000                STO-SY =           0.0000     STORAGE         
                 CHD =           0.0000                   CHD =           0.0000     CHD-1           
           UZF-GWRCH =           0.0000             UZF-GWRCH =           0.0000     UZF-1           
             UZF-GWD =           0.0000               UZF-GWD =           0.0000     UZF-1           
            UZF-GWET =           0.0000              UZF-GWET =           0.0000     UZF-1           

           TOTAL OUT =           0.0000             TOTAL OUT =           0.0000

            IN - OUT =           0.0000              IN - OUT =           0.0000

 PERCENT DISCREPANCY =           0.00     PERCENT DISCREPANCY =           0.00




         TIME SUMMARY AT END OF TIME STEP    6 IN STRESS PERIOD    4
                    SECONDS     MINUTES      HOURS       DAYS        YEARS
                    -----------------------------------------------------------
   TIME STEP LENGTH 4.32000E+06  72000.      1200.0      50.000     0.13689    
 STRESS PERIOD TIME 2.59200E+07 4.32000E+05  7200.0      300.00     0.82136    
         TOTAL TIME 3.11040E+07 5.18400E+05  8640.0      360.00     0.98563    


end timestep


start timestep kper="4" kstp="7" mode="normal"

 UBDSV1 SAVING     FLOW-JA-FACE ON UNIT   1020 AT TIME STEP      7, STRESS PERIOD      4
 UBDSV06 SAVING     FLOW-JA-FACE IN MODEL GWF_1            PACKAGE UZF-1           CONNECTED TO MODEL GWF_1            PACKAGE UZF-1            ON UNIT   1014 AT TIME STEP      7, STRESS PERIOD      4
 UBDSV06 SAVING              GWF IN MODEL GWF_1            PACKAGE UZF-1           CONNECTED TO MODEL GWF_1            PACKAGE GWF_1            ON UNIT   1014 AT TIME STEP      7, STRESS PERIOD      4
 UBDSV06 SAVING     INFILTRATION IN MODEL GWF_1            PACKAGE UZF-1           CONNECTED TO MODEL GWF_1            PACKAGE UZF-1            ON UNIT   1014 AT TIME STEP      7, STRESS PERIOD      4
 UBDSV06 SAVING          REJ-INF IN MODEL GWF_1            PACKAGE UZF-1           CONNECTED TO MODEL GWF_1            PACKAGE UZF-1            ON UNIT   1014 AT TIME STEP      7, STRESS PERIOD      4
 UBDSV06 SAVING             UZET IN MODEL GWF_1            PACKAGE UZF-1           CONNECTED TO MODEL GWF_1            PACKAGE UZF-1            ON UNIT   1014 AT TIME STEP      7, STRESS PERIOD      4
 UBDSV06 SAVING          STORAGE IN MODEL GWF_1            PACKAGE UZF-1           CONNECTED TO MODEL GWF_1            PACKAGE UZF-1            ON UNIT   1014 AT TIME STEP      7, STRESS PERIOD      4

 CHD PACKAGE (CHD-1) FLOW RATES   PERIOD      4   STEP        7
 -----------------------------------------------
   NUMBER   CELLID                    RATE      
 -----------------------------------------------
     1      (3,1,1)               0.0000000     
     2      (3,1,10)              0.0000000     
 -----------------------------------------------




 UZF-GWRCH PACKAGE (UZF-1) FLOW RATES   PERIOD      4   STEP        7
 ----------------------------------------------------------------------------------------
   NUMBER   CELLID                    RATE       NAME                                    
 ----------------------------------------------------------------------------------------
     1      (1,1,2)               0.0000000      UZF01                                   
     2      (1,1,3)               0.0000000      UZF02                                   
     3      (1,1,4)               0.0000000      UZF03                                   
     4      (1,1,5)               0.0000000      UZF04                                   
     5      (1,1,6)               0.0000000      UZF05                                   
     6      (1,1,7)               0.0000000      UZF06                                   
     7      (1,1,8)               0.0000000      UZF07                                   
     8      (1,1,9)               0.0000000      UZF08                                   
     9      (2,1,2)               0.0000000      UZF08                                   
     10     (2,1,3)               0.0000000      UZF10                                   
     11     (2,1,4)               0.0000000      UZF11                                   
     12     (2,1,5)               0.0000000      UZF12                                   
     13     (2,1,6)               0.0000000      UZF13                                   
     14     (2,1,7)               0.0000000      UZF14                                   
     15     (2,1,8)               0.0000000      UZF15                                   
     16     (2,1,9)               0.0000000      UZF16                                   
     17     (3,1,2)               0.0000000      UZF17                                   
     18     (3,1,3)               0.0000000      UZF18                                   
     19     (3,1,4)               0.0000000      UZF19                                   
     20     (3,1,5)               0.0000000      UZF20                                   
     21     (3,1,6)               0.0000000      UZF21                                   
     22     (3,1,7)               0.0000000      UZF22                                   
     23     (3,1,8)               0.0000000      UZF23                                   
     24     (3,1,9)               0.0000000      UZF24                                   
 ----------------------------------------------------------------------------------------




 UZF-GWD PACKAGE (UZF-1) FLOW RATES   PERIOD      4   STEP        7
 ----------------------------------------------------------------------------------------
   NUMBER   CELLID                    RATE       NAME                                    
 ----------------------------------------------------------------------------------------
     1      (1,1,2)               0.0000000      UZF01                                   
     2      (1,1,3)               0.0000000      UZF02                                   
     3      (1,1,4)               0.0000000      UZF03                                   
     4      (1,1,5)               0.0000000      UZF04                                   
     5      (1,1,6)               0.0000000      UZF05                                   
     6      (1,1,7)               0.0000000      UZF06                                   
     7      (1,1,8)               0.0000000      UZF07                                   
     8      (1,1,9)               0.0000000      UZF08                                   
     9      (2,1,2)               0.0000000      UZF08                                   
     10     (2,1,3)               0.0000000      UZF10                                   
     11     (2,1,4)               0.0000000      UZF11                                   
     12     (2,1,5)               0.0000000      UZF12                                   
     13     (2,1,6)               0.0000000      UZF13                                   
     14     (2,1,7)               0.0000000      UZF14                                   
     15     (2,1,8)               0.0000000      UZF15                                   
     16     (2,1,9)               0.0000000      UZF16                                   
     17     (3,1,2)               0.0000000      UZF17                                   
     18     (3,1,3)               0.0000000      UZF18                                   
     19     (3,1,4)               0.0000000      UZF19                                   
     20     (3,1,5)               0.0000000      UZF20                                   
     21     (3,1,6)               0.0000000      UZF21                                   
     22     (3,1,7)               0.0000000      UZF22                                   
     23     (3,1,8)               0.0000000      UZF23                                   
     24     (3,1,9)               0.0000000      UZF24                                   
 ----------------------------------------------------------------------------------------




 UZF-GWET PACKAGE (UZF-1) FLOW RATES   PERIOD      4   STEP        7
 ----------------------------------------------------------------------------------------
   NUMBER   CELLID                    RATE       NAME                                    
 ----------------------------------------------------------------------------------------
     1      (1,1,2)               0.0000000      UZF01                                   
     2      (1,1,3)               0.0000000      UZF02                                   
     3      (1,1,4)               0.0000000      UZF03                                   
     4      (1,1,5)               0.0000000      UZF04                                   
     5      (1,1,6)               0.0000000      UZF05                                   
     6      (1,1,7)               0.0000000      UZF06                                   
     7      (1,1,8)               0.0000000      UZF07                                   
     8      (1,1,9)               0.0000000      UZF08                                   
     9      (2,1,2)               0.0000000      UZF08                                   
     10     (2,1,3)               0.0000000      UZF10                                   
     11     (2,1,4)               0.0000000      UZF11                                   
     12     (2,1,5)               0.0000000      UZF12                                   
     13     (2,1,6)               0.0000000      UZF13                                   
     14     (2,1,7)               0.0000000      UZF14                                   
     15     (2,1,8)               0.0000000      UZF15                                   
     16     (2,1,9)               0.0000000      UZF16                                   
     17     (3,1,2)               0.0000000      UZF17                                   
     18     (3,1,3)               0.0000000      UZF18                                   
     19     (3,1,4)               0.0000000      UZF19                                   
     20     (3,1,5)               0.0000000      UZF20                                   
     21     (3,1,6)               0.0000000      UZF21                                   
     22     (3,1,7)               0.0000000      UZF22                                   
     23     (3,1,8)               0.0000000      UZF23                                   
     24     (3,1,9)               0.0000000      UZF24                                   
 ----------------------------------------------------------------------------------------




 UZF-1 PACKAGE - SUMMARY OF FLOWS FOR EACH CONTROL VOLUME   PERIOD      4   STEP        7
 ----------------------------------------------------------------------------------------------------------------------------------------------------
                                                                                                                                           PERCENT   
   NUMBER   CELLID                  INFLOW      OUTFLOW        GWF      INFILTRATION   REJ INF        UZET       STORAGE      IN - OUT    DIFFERENCE 
 ----------------------------------------------------------------------------------------------------------------------------------------------------
     1      (1,1,2)               0.0000      -15.289       0.0000       0.0000       0.0000      -9.11821E-03  15.317       1.88002E-02  0.12281    
     2      (1,1,3)               0.0000      -15.289       0.0000       0.0000       0.0000      -9.11821E-03  15.317       1.88002E-02  0.12281    
     3      (1,1,4)               0.0000      -15.289       0.0000       0.0000       0.0000      -9.11821E-03  15.317       1.88002E-02  0.12281    
     4      (1,1,5)               0.0000      -15.289       0.0000       0.0000       0.0000      -9.11821E-03  15.317       1.88002E-02  0.12281    
     5      (1,1,6)               0.0000      -15.289       0.0000       0.0000       0.0000      -9.11821E-03  15.317       1.88002E-02  0.12281    
     6      (1,1,7)               0.0000      -15.289       0.0000       0.0000       0.0000      -9.11821E-03  15.317       1.88002E-02  0.12281    
     7      (1,1,8)               0.0000      -15.289       0.0000       0.0000       0.0000      -9.11821E-03  15.317       1.88002E-02  0.12281    
     8      (1,1,9)               0.0000      -15.289       0.0000       0.0000       0.0000      -9.11821E-03  15.317       1.88002E-02  0.12281    
     9      (2,1,2)               15.289       0.0000       0.0000       0.0000       0.0000      -6.28777E-02 -15.227       1.75125E-06  1.14540E-05
     10     (2,1,3)               15.289       0.0000       0.0000       0.0000       0.0000      -6.28777E-02 -15.227       1.75125E-06  1.14540E-05
     11     (2,1,4)               15.289       0.0000       0.0000       0.0000       0.0000      -6.28777E-02 -15.227       1.75125E-06  1.14540E-05
     12     (2,1,5)               15.289       0.0000       0.0000       0.0000       0.0000      -6.28777E-02 -15.227       1.75125E-06  1.14540E-05
     13     (2,1,6)               15.289       0.0000       0.0000       0.0000       0.0000      -6.28777E-02 -15.227       1.75125E-06  1.14540E-05
     14     (2,1,7)               15.289       0.0000       0.0000       0.0000       0.0000      -6.28777E-02 -15.227       1.75125E-06  1.14540E-05
     15     (2,1,8)               15.289       0.0000       0.0000       0.0000       0.0000      -6.28777E-02 -15.227       1.75125E-06  1.14540E-05
     16     (2,1,9)               15.289       0.0000       0.0000       0.0000       0.0000      -6.28777E-02 -15.227       1.75125E-06  1.14540E-05
     17     (3,1,2)               0.0000       0.0000       0.0000       0.0000       0.0000       0.0000       0.0000       0.0000       0.0000     
     18     (3,1,3)               0.0000       0.0000       0.0000       0.0000       0.0000       0.0000       0.0000       0.0000       0.0000     
     19     (3,1,4)               0.0000       0.0000       0.0000       0.0000       0.0000       0.0000       0.0000       0.0000       0.0000     
     20     (3,1,5)               0.0000       0.0000       0.0000       0.0000       0.0000       0.0000       0.0000       0.0000       0.0000     
     21     (3,1,6)               0.0000       0.0000       0.0000       0.0000       0.0000       0.0000       0.0000       0.0000       0.0000     
     22     (3,1,7)               0.0000       0.0000       0.0000       0.0000       0.0000       0.0000       0.0000       0.0000       0.0000     
     23     (3,1,8)               0.0000       0.0000       0.0000       0.0000       0.0000       0.0000       0.0000       0.0000       0.0000     
     24     (3,1,9)               0.0000       0.0000       0.0000       0.0000       0.0000       0.0000       0.0000       0.0000       0.0000     
 ----------------------------------------------------------------------------------------------------------------------------------------------------


1
  HEAD IN LAYER   1 AT END OF TIME STEP   7 IN STRESS PERIOD    4
  ---------------------------------------------------------------------------

            1           2           3           4           5           6           7           8           9          10
 ........................................................................................................................
   1   -25.00      -25.00      -25.00      -25.00      -25.00      -25.00      -25.00      -25.00      -25.00      -25.00    
1
  HEAD IN LAYER   2 AT END OF TIME STEP   7 IN STRESS PERIOD    4
  ---------------------------------------------------------------------------

            1           2           3           4           5           6           7           8           9          10
 ........................................................................................................................
   1   -25.00      -25.00      -25.00      -25.00      -25.00      -25.00      -25.00      -25.00      -25.00      -25.00    
1
  HEAD IN LAYER   3 AT END OF TIME STEP   7 IN STRESS PERIOD    4
  ---------------------------------------------------------------------------

            1           2           3           4           5           6           7           8           9          10
 ........................................................................................................................
   1   -25.00      -25.00      -25.00      -25.00      -25.00      -25.00      -25.00      -25.00      -25.00      -25.00    

 HEAD WILL BE SAVED ON UNIT 1022 AT END OF TIME STEP    7, STRESS PERIOD    4


  UZF-1 BUDGET FOR ENTIRE MODEL AT END OF TIME STEP    7, STRESS PERIOD   4
  ------------------------------------------------------------------------------

     CUMULATIVE UZF-1      L**3       RATES FOR THIS TIME STEP      L**3/T
     ------------------                 ------------------------

           IN:                                      IN:
           ---                                      ---
                 GWF =           0.0000                   GWF =           0.0000
        INFILTRATION =      480000.0000          INFILTRATION =           0.0000
             REJ-INF =           0.0000               REJ-INF =           0.0000
                UZET =           0.0000                  UZET =           0.0000
             STORAGE =      264296.6671               STORAGE =         122.5387

            TOTAL IN =      744296.6671              TOTAL IN =         122.5387

          OUT:                                     OUT:
          ----                                     ----
                 GWF =           0.0000                   GWF =           0.0000
        INFILTRATION =           0.0000          INFILTRATION =           0.0000
             REJ-INF =           0.0000               REJ-INF =           0.0000
                UZET =         211.1723                  UZET =           0.5760
             STORAGE =      744059.1437               STORAGE =         121.8123

           TOTAL OUT =      744270.3160             TOTAL OUT =         122.3882

            IN - OUT =          26.3511              IN - OUT =           0.1504

 PERCENT DISCREPANCY =           0.00     PERCENT DISCREPANCY =           0.12



  VOLUME BUDGET FOR ENTIRE MODEL AT END OF TIME STEP    7, STRESS PERIOD   4
  ---------------------------------------------------------------------------------------------------

     CUMULATIVE VOLUME      L**3       RATES FOR THIS TIME STEP      L**3/T          PACKAGE NAME    
     ------------------                 ------------------------                     ----------------

           IN:                                      IN:
           ---                                      ---
              STO-SS =           0.0000                STO-SS =           0.0000     STORAGE         
              STO-SY =           0.0000                STO-SY =           0.0000     STORAGE         
                 CHD =           0.0000                   CHD =           0.0000     CHD-1           
           UZF-GWRCH =           0.0000             UZF-GWRCH =           0.0000     UZF-1           
             UZF-GWD =           0.0000               UZF-GWD =           0.0000     UZF-1           
            UZF-GWET =           0.0000              UZF-GWET =           0.0000     UZF-1           

            TOTAL IN =           0.0000              TOTAL IN =           0.0000

          OUT:                                     OUT:
          ----                                     ----
              STO-SS =           0.0000                STO-SS =           0.0000     STORAGE         
              STO-SY =           0.0000                STO-SY =           0.0000     STORAGE         
                 CHD =           0.0000                   CHD =           0.0000     CHD-1           
           UZF-GWRCH =           0.0000             UZF-GWRCH =           0.0000     UZF-1           
             UZF-GWD =           0.0000               UZF-GWD =           0.0000     UZF-1           
            UZF-GWET =           0.0000              UZF-GWET =           0.0000     UZF-1           

           TOTAL OUT =           0.0000             TOTAL OUT =           0.0000

            IN - OUT =           0.0000              IN - OUT =           0.0000

 PERCENT DISCREPANCY =           0.00     PERCENT DISCREPANCY =           0.00




         TIME SUMMARY AT END OF TIME STEP    7 IN STRESS PERIOD    4
                    SECONDS     MINUTES      HOURS       DAYS        YEARS
                    -----------------------------------------------------------
   TIME STEP LENGTH 4.32000E+06  72000.      1200.0      50.000     0.13689    
 STRESS PERIOD TIME 3.02400E+07 5.04000E+05  8400.0      350.00     0.95825    
         TOTAL TIME 3.54240E+07 5.90400E+05  9840.0      410.00      1.1225    


end timestep


start timestep kper="4" kstp="8" mode="normal"

 UBDSV1 SAVING     FLOW-JA-FACE ON UNIT   1020 AT TIME STEP      8, STRESS PERIOD      4
 UBDSV06 SAVING     FLOW-JA-FACE IN MODEL GWF_1            PACKAGE UZF-1           CONNECTED TO MODEL GWF_1            PACKAGE UZF-1            ON UNIT   1014 AT TIME STEP      8, STRESS PERIOD      4
 UBDSV06 SAVING              GWF IN MODEL GWF_1            PACKAGE UZF-1           CONNECTED TO MODEL GWF_1            PACKAGE GWF_1            ON UNIT   1014 AT TIME STEP      8, STRESS PERIOD      4
 UBDSV06 SAVING     INFILTRATION IN MODEL GWF_1            PACKAGE UZF-1           CONNECTED TO MODEL GWF_1            PACKAGE UZF-1            ON UNIT   1014 AT TIME STEP      8, STRESS PERIOD      4
 UBDSV06 SAVING          REJ-INF IN MODEL GWF_1            PACKAGE UZF-1           CONNECTED TO MODEL GWF_1            PACKAGE UZF-1            ON UNIT   1014 AT TIME STEP      8, STRESS PERIOD      4
 UBDSV06 SAVING             UZET IN MODEL GWF_1            PACKAGE UZF-1           CONNECTED TO MODEL GWF_1            PACKAGE UZF-1            ON UNIT   1014 AT TIME STEP      8, STRESS PERIOD      4
 UBDSV06 SAVING          STORAGE IN MODEL GWF_1            PACKAGE UZF-1           CONNECTED TO MODEL GWF_1            PACKAGE UZF-1            ON UNIT   1014 AT TIME STEP      8, STRESS PERIOD      4

 CHD PACKAGE (CHD-1) FLOW RATES   PERIOD      4   STEP        8
 -----------------------------------------------
   NUMBER   CELLID                    RATE      
 -----------------------------------------------
     1      (3,1,1)               0.0000000     
     2      (3,1,10)              0.0000000     
 -----------------------------------------------




 UZF-GWRCH PACKAGE (UZF-1) FLOW RATES   PERIOD      4   STEP        8
 ----------------------------------------------------------------------------------------
   NUMBER   CELLID                    RATE       NAME                                    
 ----------------------------------------------------------------------------------------
     1      (1,1,2)               0.0000000      UZF01                                   
     2      (1,1,3)               0.0000000      UZF02                                   
     3      (1,1,4)               0.0000000      UZF03                                   
     4      (1,1,5)               0.0000000      UZF04                                   
     5      (1,1,6)               0.0000000      UZF05                                   
     6      (1,1,7)               0.0000000      UZF06                                   
     7      (1,1,8)               0.0000000      UZF07                                   
     8      (1,1,9)               0.0000000      UZF08                                   
     9      (2,1,2)               0.0000000      UZF08                                   
     10     (2,1,3)               0.0000000      UZF10                                   
     11     (2,1,4)               0.0000000      UZF11                                   
     12     (2,1,5)               0.0000000      UZF12                                   
     13     (2,1,6)               0.0000000      UZF13                                   
     14     (2,1,7)               0.0000000      UZF14                                   
     15     (2,1,8)               0.0000000      UZF15                                   
     16     (2,1,9)               0.0000000      UZF16                                   
     17     (3,1,2)               0.0000000      UZF17                                   
     18     (3,1,3)               0.0000000      UZF18                                   
     19     (3,1,4)               0.0000000      UZF19                                   
     20     (3,1,5)               0.0000000      UZF20                                   
     21     (3,1,6)               0.0000000      UZF21                                   
     22     (3,1,7)               0.0000000      UZF22                                   
     23     (3,1,8)               0.0000000      UZF23                                   
     24     (3,1,9)               0.0000000      UZF24                                   
 ----------------------------------------------------------------------------------------




 UZF-GWD PACKAGE (UZF-1) FLOW RATES   PERIOD      4   STEP        8
 ----------------------------------------------------------------------------------------
   NUMBER   CELLID                    RATE       NAME                                    
 ----------------------------------------------------------------------------------------
     1      (1,1,2)               0.0000000      UZF01                                   
     2      (1,1,3)               0.0000000      UZF02                                   
     3      (1,1,4)               0.0000000      UZF03                                   
     4      (1,1,5)               0.0000000      UZF04                                   
     5      (1,1,6)               0.0000000      UZF05                                   
     6      (1,1,7)               0.0000000      UZF06                                   
     7      (1,1,8)               0.0000000      UZF07                                   
     8      (1,1,9)               0.0000000      UZF08                                   
     9      (2,1,2)               0.0000000      UZF08                                   
     10     (2,1,3)               0.0000000      UZF10                                   
     11     (2,1,4)               0.0000000      UZF11                                   
     12     (2,1,5)               0.0000000      UZF12                                   
     13     (2,1,6)               0.0000000      UZF13                                   
     14     (2,1,7)               0.0000000      UZF14                                   
     15     (2,1,8)               0.0000000      UZF15                                   
     16     (2,1,9)               0.0000000      UZF16                                   
     17     (3,1,2)               0.0000000      UZF17                                   
     18     (3,1,3)               0.0000000      UZF18                                   
     19     (3,1,4)               0.0000000      UZF19                                   
     20     (3,1,5)               0.0000000      UZF20                                   
     21     (3,1,6)               0.0000000      UZF21                                   
     22     (3,1,7)               0.0000000      UZF22                                   
     23     (3,1,8)               0.0000000      UZF23                                   
     24     (3,1,9)               0.0000000      UZF24                                   
 ----------------------------------------------------------------------------------------




 UZF-GWET PACKAGE (UZF-1) FLOW RATES   PERIOD      4   STEP        8
 ----------------------------------------------------------------------------------------
   NUMBER   CELLID                    RATE       NAME                                    
 ----------------------------------------------------------------------------------------
     1      (1,1,2)               0.0000000      UZF01                                   
     2      (1,1,3)               0.0000000      UZF02                                   
     3      (1,1,4)               0.0000000      UZF03                                   
     4      (1,1,5)               0.0000000      UZF04                                   
     5      (1,1,6)               0.0000000      UZF05                                   
     6      (1,1,7)               0.0000000      UZF06                                   
     7      (1,1,8)               0.0000000      UZF07                                   
     8      (1,1,9)               0.0000000      UZF08                                   
     9      (2,1,2)               0.0000000      UZF08                                   
     10     (2,1,3)               0.0000000      UZF10                                   
     11     (2,1,4)               0.0000000      UZF11                                   
     12     (2,1,5)               0.0000000      UZF12                                   
     13     (2,1,6)               0.0000000      UZF13                                   
     14     (2,1,7)               0.0000000      UZF14                                   
     15     (2,1,8)               0.0000000      UZF15                                   
     16     (2,1,9)               0.0000000      UZF16                                   
     17     (3,1,2)               0.0000000      UZF17                                   
     18     (3,1,3)               0.0000000      UZF18                                   
     19     (3,1,4)               0.0000000      UZF19                                   
     20     (3,1,5)               0.0000000      UZF20                                   
     21     (3,1,6)               0.0000000      UZF21                                   
     22     (3,1,7)               0.0000000      UZF22                                   
     23     (3,1,8)               0.0000000      UZF23                                   
     24     (3,1,9)               0.0000000      UZF24                                   
 ----------------------------------------------------------------------------------------




 UZF-1 PACKAGE - SUMMARY OF FLOWS FOR EACH CONTROL VOLUME   PERIOD      4   STEP        8
 ----------------------------------------------------------------------------------------------------------------------------------------------------
                                                                                                                                           PERCENT   
   NUMBER   CELLID                  INFLOW      OUTFLOW        GWF      INFILTRATION   REJ INF        UZET       STORAGE      IN - OUT    DIFFERENCE 
 ----------------------------------------------------------------------------------------------------------------------------------------------------
     1      (1,1,2)               0.0000      -15.283       0.0000       0.0000       0.0000      -6.13510E-03  15.311       2.19271E-02  0.14331    
     2      (1,1,3)               0.0000      -15.283       0.0000       0.0000       0.0000      -6.13510E-03  15.311       2.19271E-02  0.14331    
     3      (1,1,4)               0.0000      -15.283       0.0000       0.0000       0.0000      -6.13510E-03  15.311       2.19271E-02  0.14331    
     4      (1,1,5)               0.0000      -15.283       0.0000       0.0000       0.0000      -6.13510E-03  15.311       2.19271E-02  0.14331    
     5      (1,1,6)               0.0000      -15.283       0.0000       0.0000       0.0000      -6.13510E-03  15.311       2.19271E-02  0.14331    
     6      (1,1,7)               0.0000      -15.283       0.0000       0.0000       0.0000      -6.13510E-03  15.311       2.19271E-02  0.14331    
     7      (1,1,8)               0.0000      -15.283       0.0000       0.0000       0.0000      -6.13510E-03  15.311       2.19271E-02  0.14331    
     8      (1,1,9)               0.0000      -15.283       0.0000       0.0000       0.0000      -6.13510E-03  15.311       2.19271E-02  0.14331    
     9      (2,1,2)               15.283       0.0000       0.0000       0.0000       0.0000      -6.44091E-02 -15.219       1.83275E-06  1.19918E-05
     10     (2,1,3)               15.283       0.0000       0.0000       0.0000       0.0000      -6.44091E-02 -15.219       1.83275E-06  1.19918E-05
     11     (2,1,4)               15.283       0.0000       0.0000       0.0000       0.0000      -6.44091E-02 -15.219       1.83275E-06  1.19918E-05
     12     (2,1,5)               15.283       0.0000       0.0000       0.0000       0.0000      -6.44091E-02 -15.219       1.83275E-06  1.19918E-05
     13     (2,1,6)               15.283       0.0000       0.0000       0.0000       0.0000      -6.44091E-02 -15.219       1.83275E-06  1.19918E-05
     14     (2,1,7)               15.283       0.0000       0.0000       0.0000       0.0000      -6.44091E-02 -15.219       1.83275E-06  1.19918E-05
     15     (2,1,8)               15.283       0.0000       0.0000       0.0000       0.0000      -6.44091E-02 -15.219       1.83275E-06  1.19918E-05
     16     (2,1,9)               15.283       0.0000       0.0000       0.0000       0.0000      -6.44091E-02 -15.219       1.83275E-06  1.19918E-05
     17     (3,1,2)               0.0000       0.0000       0.0000       0.0000       0.0000       0.0000       0.0000       0.0000       0.0000     
     18     (3,1,3)               0.0000       0.0000       0.0000       0.0000       0.0000       0.0000       0.0000       0.0000       0.0000     
     19     (3,1,4)               0.0000       0.0000       0.0000       0.0000       0.0000       0.0000       0.0000       0.0000       0.0000     
     20     (3,1,5)               0.0000       0.0000       0.0000       0.0000       0.0000       0.0000       0.0000       0.0000       0.0000     
     21     (3,1,6)               0.0000       0.0000       0.0000       0.0000       0.0000       0.0000       0.0000       0.0000       0.0000     
     22     (3,1,7)               0.0000       0.0000       0.0000       0.0000       0.0000       0.0000       0.0000       0.0000       0.0000     
     23     (3,1,8)               0.0000       0.0000       0.0000       0.0000       0.0000       0.0000       0.0000       0.0000       0.0000     
     24     (3,1,9)               0.0000       0.0000       0.0000       0.0000       0.0000       0.0000       0.0000       0.0000       0.0000     
 ----------------------------------------------------------------------------------------------------------------------------------------------------


1
  HEAD IN LAYER   1 AT END OF TIME STEP   8 IN STRESS PERIOD    4
  ---------------------------------------------------------------------------

            1           2           3           4           5           6           7           8           9          10
 ........................................................................................................................
   1   -25.00      -25.00      -25.00      -25.00      -25.00      -25.00      -25.00      -25.00      -25.00      -25.00    
1
  HEAD IN LAYER   2 AT END OF TIME STEP   8 IN STRESS PERIOD    4
  ---------------------------------------------------------------------------

            1           2           3           4           5           6           7           8           9          10
 ........................................................................................................................
   1   -25.00      -25.00      -25.00      -25.00      -25.00      -25.00      -25.00      -25.00      -25.00      -25.00    
1
  HEAD IN LAYER   3 AT END OF TIME STEP   8 IN STRESS PERIOD    4
  ---------------------------------------------------------------------------

            1           2           3           4           5           6           7           8           9          10
 ........................................................................................................................
   1   -25.00      -25.00      -25.00      -25.00      -25.00      -25.00      -25.00      -25.00      -25.00      -25.00    

 HEAD WILL BE SAVED ON UNIT 1022 AT END OF TIME STEP    8, STRESS PERIOD    4


  UZF-1 BUDGET FOR ENTIRE MODEL AT END OF TIME STEP    8, STRESS PERIOD   4
  ------------------------------------------------------------------------------

     CUMULATIVE UZF-1      L**3       RATES FOR THIS TIME STEP      L**3/T
     ------------------                 ------------------------

           IN:                                      IN:
           ---                                      ---
                 GWF =           0.0000                   GWF =           0.0000
        INFILTRATION =      480000.0000          INFILTRATION =           0.0000
             REJ-INF =           0.0000               REJ-INF =           0.0000
                UZET =           0.0000                  UZET =           0.0000
             STORAGE =      270421.2131               STORAGE =         122.4909

            TOTAL IN =      750421.2131              TOTAL IN =         122.4909

          OUT:                                     OUT:
          ----                                     ----
                 GWF =           0.0000                   GWF =           0.0000
        INFILTRATION =           0.0000          INFILTRATION =           0.0000
             REJ-INF =           0.0000               REJ-INF =           0.0000
                UZET =         239.3899                  UZET =           0.5644
             STORAGE =      750146.7005               STORAGE =         121.7511

           TOTAL OUT =      750386.0904             TOTAL OUT =         122.3155

            IN - OUT =          35.1226              IN - OUT =           0.1754

 PERCENT DISCREPANCY =           0.00     PERCENT DISCREPANCY =           0.14



  VOLUME BUDGET FOR ENTIRE MODEL AT END OF TIME STEP    8, STRESS PERIOD   4
  ---------------------------------------------------------------------------------------------------

     CUMULATIVE VOLUME      L**3       RATES FOR THIS TIME STEP      L**3/T          PACKAGE NAME    
     ------------------                 ------------------------                     ----------------

           IN:                                      IN:
           ---                                      ---
              STO-SS =           0.0000                STO-SS =           0.0000     STORAGE         
              STO-SY =           0.0000                STO-SY =           0.0000     STORAGE         
                 CHD =           0.0000                   CHD =           0.0000     CHD-1           
           UZF-GWRCH =           0.0000             UZF-GWRCH =           0.0000     UZF-1           
             UZF-GWD =           0.0000               UZF-GWD =           0.0000     UZF-1           
            UZF-GWET =           0.0000              UZF-GWET =           0.0000     UZF-1           

            TOTAL IN =           0.0000              TOTAL IN =           0.0000

          OUT:                                     OUT:
          ----                                     ----
              STO-SS =           0.0000                STO-SS =           0.0000     STORAGE         
              STO-SY =           0.0000                STO-SY =           0.0000     STORAGE         
                 CHD =           0.0000                   CHD =           0.0000     CHD-1           
           UZF-GWRCH =           0.0000             UZF-GWRCH =           0.0000     UZF-1           
             UZF-GWD =           0.0000               UZF-GWD =           0.0000     UZF-1           
            UZF-GWET =           0.0000              UZF-GWET =           0.0000     UZF-1           

           TOTAL OUT =           0.0000             TOTAL OUT =           0.0000

            IN - OUT =           0.0000              IN - OUT =           0.0000

 PERCENT DISCREPANCY =           0.00     PERCENT DISCREPANCY =           0.00




         TIME SUMMARY AT END OF TIME STEP    8 IN STRESS PERIOD    4
                    SECONDS     MINUTES      HOURS       DAYS        YEARS
                    -----------------------------------------------------------
   TIME STEP LENGTH 4.32000E+06  72000.      1200.0      50.000     0.13689    
 STRESS PERIOD TIME 3.45600E+07 5.76000E+05  9600.0      400.00      1.0951    
         TOTAL TIME 3.97440E+07 6.62400E+05  11040.      460.00      1.2594    


end timestep


start timestep kper="4" kstp="9" mode="normal"

 UBDSV1 SAVING     FLOW-JA-FACE ON UNIT   1020 AT TIME STEP      9, STRESS PERIOD      4
 UBDSV06 SAVING     FLOW-JA-FACE IN MODEL GWF_1            PACKAGE UZF-1           CONNECTED TO MODEL GWF_1            PACKAGE UZF-1            ON UNIT   1014 AT TIME STEP      9, STRESS PERIOD      4
 UBDSV06 SAVING              GWF IN MODEL GWF_1            PACKAGE UZF-1           CONNECTED TO MODEL GWF_1            PACKAGE GWF_1            ON UNIT   1014 AT TIME STEP      9, STRESS PERIOD      4
 UBDSV06 SAVING     INFILTRATION IN MODEL GWF_1            PACKAGE UZF-1           CONNECTED TO MODEL GWF_1            PACKAGE UZF-1            ON UNIT   1014 AT TIME STEP      9, STRESS PERIOD      4
 UBDSV06 SAVING          REJ-INF IN MODEL GWF_1            PACKAGE UZF-1           CONNECTED TO MODEL GWF_1            PACKAGE UZF-1            ON UNIT   1014 AT TIME STEP      9, STRESS PERIOD      4
 UBDSV06 SAVING             UZET IN MODEL GWF_1            PACKAGE UZF-1           CONNECTED TO MODEL GWF_1            PACKAGE UZF-1            ON UNIT   1014 AT TIME STEP      9, STRESS PERIOD      4
 UBDSV06 SAVING          STORAGE IN MODEL GWF_1            PACKAGE UZF-1           CONNECTED TO MODEL GWF_1            PACKAGE UZF-1            ON UNIT   1014 AT TIME STEP      9, STRESS PERIOD      4

 CHD PACKAGE (CHD-1) FLOW RATES   PERIOD      4   STEP        9
 -----------------------------------------------
   NUMBER   CELLID                    RATE      
 -----------------------------------------------
     1      (3,1,1)               0.0000000     
     2      (3,1,10)              0.0000000     
 -----------------------------------------------




 UZF-GWRCH PACKAGE (UZF-1) FLOW RATES   PERIOD      4   STEP        9
 ----------------------------------------------------------------------------------------
   NUMBER   CELLID                    RATE       NAME                                    
 ----------------------------------------------------------------------------------------
     1      (1,1,2)               0.0000000      UZF01                                   
     2      (1,1,3)               0.0000000      UZF02                                   
     3      (1,1,4)               0.0000000      UZF03                                   
     4      (1,1,5)               0.0000000      UZF04                                   
     5      (1,1,6)               0.0000000      UZF05                                   
     6      (1,1,7)               0.0000000      UZF06                                   
     7      (1,1,8)               0.0000000      UZF07                                   
     8      (1,1,9)               0.0000000      UZF08                                   
     9      (2,1,2)               0.0000000      UZF08                                   
     10     (2,1,3)               0.0000000      UZF10                                   
     11     (2,1,4)               0.0000000      UZF11                                   
     12     (2,1,5)               0.0000000      UZF12                                   
     13     (2,1,6)               0.0000000      UZF13                                   
     14     (2,1,7)               0.0000000      UZF14                                   
     15     (2,1,8)               0.0000000      UZF15                                   
     16     (2,1,9)               0.0000000      UZF16                                   
     17     (3,1,2)               0.0000000      UZF17                                   
     18     (3,1,3)               0.0000000      UZF18                                   
     19     (3,1,4)               0.0000000      UZF19                                   
     20     (3,1,5)               0.0000000      UZF20                                   
     21     (3,1,6)               0.0000000      UZF21                                   
     22     (3,1,7)               0.0000000      UZF22                                   
     23     (3,1,8)               0.0000000      UZF23                                   
     24     (3,1,9)               0.0000000      UZF24                                   
 ----------------------------------------------------------------------------------------




 UZF-GWD PACKAGE (UZF-1) FLOW RATES   PERIOD      4   STEP        9
 ----------------------------------------------------------------------------------------
   NUMBER   CELLID                    RATE       NAME                                    
 ----------------------------------------------------------------------------------------
     1      (1,1,2)               0.0000000      UZF01                                   
     2      (1,1,3)               0.0000000      UZF02                                   
     3      (1,1,4)               0.0000000      UZF03                                   
     4      (1,1,5)               0.0000000      UZF04                                   
     5      (1,1,6)               0.0000000      UZF05                                   
     6      (1,1,7)               0.0000000      UZF06                                   
     7      (1,1,8)               0.0000000      UZF07                                   
     8      (1,1,9)               0.0000000      UZF08                                   
     9      (2,1,2)               0.0000000      UZF08                                   
     10     (2,1,3)               0.0000000      UZF10                                   
     11     (2,1,4)               0.0000000      UZF11                                   
     12     (2,1,5)               0.0000000      UZF12                                   
     13     (2,1,6)               0.0000000      UZF13                                   
     14     (2,1,7)               0.0000000      UZF14                                   
     15     (2,1,8)               0.0000000      UZF15                                   
     16     (2,1,9)               0.0000000      UZF16                                   
     17     (3,1,2)               0.0000000      UZF17                                   
     18     (3,1,3)               0.0000000      UZF18                                   
     19     (3,1,4)               0.0000000      UZF19                                   
     20     (3,1,5)               0.0000000      UZF20                                   
     21     (3,1,6)               0.0000000      UZF21                                   
     22     (3,1,7)               0.0000000      UZF22                                   
     23     (3,1,8)               0.0000000      UZF23                                   
     24     (3,1,9)               0.0000000      UZF24                                   
 ----------------------------------------------------------------------------------------




 UZF-GWET PACKAGE (UZF-1) FLOW RATES   PERIOD      4   STEP        9
 ----------------------------------------------------------------------------------------
   NUMBER   CELLID                    RATE       NAME                                    
 ----------------------------------------------------------------------------------------
     1      (1,1,2)               0.0000000      UZF01                                   
     2      (1,1,3)               0.0000000      UZF02                                   
     3      (1,1,4)               0.0000000      UZF03                                   
     4      (1,1,5)               0.0000000      UZF04                                   
     5      (1,1,6)               0.0000000      UZF05                                   
     6      (1,1,7)               0.0000000      UZF06                                   
     7      (1,1,8)               0.0000000      UZF07                                   
     8      (1,1,9)               0.0000000      UZF08                                   
     9      (2,1,2)               0.0000000      UZF08                                   
     10     (2,1,3)               0.0000000      UZF10                                   
     11     (2,1,4)               0.0000000      UZF11                                   
     12     (2,1,5)               0.0000000      UZF12                                   
     13     (2,1,6)               0.0000000      UZF13                                   
     14     (2,1,7)               0.0000000      UZF14                                   
     15     (2,1,8)               0.0000000      UZF15                                   
     16     (2,1,9)               0.0000000      UZF16                                   
     17     (3,1,2)               0.0000000      UZF17                                   
     18     (3,1,3)               0.0000000      UZF18                                   
     19     (3,1,4)               0.0000000      UZF19                                   
     20     (3,1,5)               0.0000000      UZF20                                   
     21     (3,1,6)               0.0000000      UZF21                                   
     22     (3,1,7)               0.0000000      UZF22                                   
     23     (3,1,8)               0.0000000      UZF23                                   
     24     (3,1,9)               0.0000000      UZF24                                   
 ----------------------------------------------------------------------------------------




 UZF-1 PACKAGE - SUMMARY OF FLOWS FOR EACH CONTROL VOLUME   PERIOD      4   STEP        9
 ----------------------------------------------------------------------------------------------------------------------------------------------------
                                                                                                                                           PERCENT   
   NUMBER   CELLID                  INFLOW      OUTFLOW        GWF      INFILTRATION   REJ INF        UZET       STORAGE      IN - OUT    DIFFERENCE 
 ----------------------------------------------------------------------------------------------------------------------------------------------------
     1      (1,1,2)               0.0000      -15.277       0.0000       0.0000       0.0000      -3.15199E-03  15.305       2.50522E-02  0.16382    
     2      (1,1,3)               0.0000      -15.277       0.0000       0.0000       0.0000      -3.15199E-03  15.305       2.50522E-02  0.16382    
     3      (1,1,4)               0.0000      -15.277       0.0000       0.0000       0.0000      -3.15199E-03  15.305       2.50522E-02  0.16382    
     4      (1,1,5)               0.0000      -15.277       0.0000       0.0000       0.0000      -3.15199E-03  15.305       2.50522E-02  0.16382    
     5      (1,1,6)               0.0000      -15.277       0.0000       0.0000       0.0000      -3.15199E-03  15.305       2.50522E-02  0.16382    
     6      (1,1,7)               0.0000      -15.277       0.0000       0.0000       0.0000      -3.15199E-03  15.305       2.50522E-02  0.16382    
     7      (1,1,8)               0.0000      -15.277       0.0000       0.0000       0.0000      -3.15199E-03  15.305       2.50522E-02  0.16382    
     8      (1,1,9)               0.0000      -15.277       0.0000       0.0000       0.0000      -3.15199E-03  15.305       2.50522E-02  0.16382    
     9      (2,1,2)               15.277       0.0000       0.0000       0.0000       0.0000      -6.61229E-02 -15.211       1.83220E-06  1.19931E-05
     10     (2,1,3)               15.277       0.0000       0.0000       0.0000       0.0000      -6.61229E-02 -15.211       1.83220E-06  1.19931E-05
     11     (2,1,4)               15.277       0.0000       0.0000       0.0000       0.0000      -6.61229E-02 -15.211       1.83220E-06  1.19931E-05
     12     (2,1,5)               15.277       0.0000       0.0000       0.0000       0.0000      -6.61229E-02 -15.211       1.83220E-06  1.19931E-05
     13     (2,1,6)               15.277       0.0000       0.0000       0.0000       0.0000      -6.61229E-02 -15.211       1.83220E-06  1.19931E-05
     14     (2,1,7)               15.277       0.0000       0.0000       0.0000       0.0000      -6.61229E-02 -15.211       1.83220E-06  1.19931E-05
     15     (2,1,8)               15.277       0.0000       0.0000       0.0000       0.0000      -6.61229E-02 -15.211       1.83220E-06  1.19931E-05
     16     (2,1,9)               15.277       0.0000       0.0000       0.0000       0.0000      -6.61229E-02 -15.211       1.83220E-06  1.19931E-05
     17     (3,1,2)               0.0000       0.0000       0.0000       0.0000       0.0000       0.0000       0.0000       0.0000       0.0000     
     18     (3,1,3)               0.0000       0.0000       0.0000       0.0000       0.0000       0.0000       0.0000       0.0000       0.0000     
     19     (3,1,4)               0.0000       0.0000       0.0000       0.0000       0.0000       0.0000       0.0000       0.0000       0.0000     
     20     (3,1,5)               0.0000       0.0000       0.0000       0.0000       0.0000       0.0000       0.0000       0.0000       0.0000     
     21     (3,1,6)               0.0000       0.0000       0.0000       0.0000       0.0000       0.0000       0.0000       0.0000       0.0000     
     22     (3,1,7)               0.0000       0.0000       0.0000       0.0000       0.0000       0.0000       0.0000       0.0000       0.0000     
     23     (3,1,8)               0.0000       0.0000       0.0000       0.0000       0.0000       0.0000       0.0000       0.0000       0.0000     
     24     (3,1,9)               0.0000       0.0000       0.0000       0.0000       0.0000       0.0000       0.0000       0.0000       0.0000     
 ----------------------------------------------------------------------------------------------------------------------------------------------------


1
  HEAD IN LAYER   1 AT END OF TIME STEP   9 IN STRESS PERIOD    4
  ---------------------------------------------------------------------------

            1           2           3           4           5           6           7           8           9          10
 ........................................................................................................................
   1   -25.00      -25.00      -25.00      -25.00      -25.00      -25.00      -25.00      -25.00      -25.00      -25.00    
1
  HEAD IN LAYER   2 AT END OF TIME STEP   9 IN STRESS PERIOD    4
  ---------------------------------------------------------------------------

            1           2           3           4           5           6           7           8           9          10
 ........................................................................................................................
   1   -25.00      -25.00      -25.00      -25.00      -25.00      -25.00      -25.00      -25.00      -25.00      -25.00    
1
  HEAD IN LAYER   3 AT END OF TIME STEP   9 IN STRESS PERIOD    4
  ---------------------------------------------------------------------------

            1           2           3           4           5           6           7           8           9          10
 ........................................................................................................................
   1   -25.00      -25.00      -25.00      -25.00      -25.00      -25.00      -25.00      -25.00      -25.00      -25.00    

 HEAD WILL BE SAVED ON UNIT 1022 AT END OF TIME STEP    9, STRESS PERIOD    4


  UZF-1 BUDGET FOR ENTIRE MODEL AT END OF TIME STEP    9, STRESS PERIOD   4
  ------------------------------------------------------------------------------

     CUMULATIVE UZF-1      L**3       RATES FOR THIS TIME STEP      L**3/T
     ------------------                 ------------------------

           IN:                                      IN:
           ---                                      ---
                 GWF =           0.0000                   GWF =           0.0000
        INFILTRATION =      480000.0000          INFILTRATION =           0.0000
             REJ-INF =           0.0000               REJ-INF =           0.0000
                UZET =           0.0000                  UZET =           0.0000
             STORAGE =      276543.3726               STORAGE =         122.4432

            TOTAL IN =      756543.3726              TOTAL IN =         122.4432

          OUT:                                     OUT:
          ----                                     ----
                 GWF =           0.0000                   GWF =           0.0000
        INFILTRATION =           0.0000          INFILTRATION =           0.0000
             REJ-INF =           0.0000               REJ-INF =           0.0000
                UZET =         267.0999                  UZET =           0.5542
             STORAGE =      756231.1284               STORAGE =         121.6886

           TOTAL OUT =      756498.2284             TOTAL OUT =         122.2428

            IN - OUT =          45.1443              IN - OUT =           0.2004

 PERCENT DISCREPANCY =           0.01     PERCENT DISCREPANCY =           0.16



  VOLUME BUDGET FOR ENTIRE MODEL AT END OF TIME STEP    9, STRESS PERIOD   4
  ---------------------------------------------------------------------------------------------------

     CUMULATIVE VOLUME      L**3       RATES FOR THIS TIME STEP      L**3/T          PACKAGE NAME    
     ------------------                 ------------------------                     ----------------

           IN:                                      IN:
           ---                                      ---
              STO-SS =           0.0000                STO-SS =           0.0000     STORAGE         
              STO-SY =           0.0000                STO-SY =           0.0000     STORAGE         
                 CHD =           0.0000                   CHD =           0.0000     CHD-1           
           UZF-GWRCH =           0.0000             UZF-GWRCH =           0.0000     UZF-1           
             UZF-GWD =           0.0000               UZF-GWD =           0.0000     UZF-1           
            UZF-GWET =           0.0000              UZF-GWET =           0.0000     UZF-1           

            TOTAL IN =           0.0000              TOTAL IN =           0.0000

          OUT:                                     OUT:
          ----                                     ----
              STO-SS =           0.0000                STO-SS =           0.0000     STORAGE         
              STO-SY =           0.0000                STO-SY =           0.0000     STORAGE         
                 CHD =           0.0000                   CHD =           0.0000     CHD-1           
           UZF-GWRCH =           0.0000             UZF-GWRCH =           0.0000     UZF-1           
             UZF-GWD =           0.0000               UZF-GWD =           0.0000     UZF-1           
            UZF-GWET =           0.0000              UZF-GWET =           0.0000     UZF-1           

           TOTAL OUT =           0.0000             TOTAL OUT =           0.0000

            IN - OUT =           0.0000              IN - OUT =           0.0000

 PERCENT DISCREPANCY =           0.00     PERCENT DISCREPANCY =           0.00




         TIME SUMMARY AT END OF TIME STEP    9 IN STRESS PERIOD    4
                    SECONDS     MINUTES      HOURS       DAYS        YEARS
                    -----------------------------------------------------------
   TIME STEP LENGTH 4.32000E+06  72000.      1200.0      50.000     0.13689    
 STRESS PERIOD TIME 3.88800E+07 6.48000E+05  10800.      450.00      1.2320    
         TOTAL TIME 4.40640E+07 7.34400E+05  12240.      510.00      1.3963    


end timestep


start timestep kper="4" kstp="10" mode="normal"

 UBDSV1 SAVING     FLOW-JA-FACE ON UNIT   1020 AT TIME STEP     10, STRESS PERIOD      4
 UBDSV06 SAVING     FLOW-JA-FACE IN MODEL GWF_1            PACKAGE UZF-1           CONNECTED TO MODEL GWF_1            PACKAGE UZF-1            ON UNIT   1014 AT TIME STEP     10, STRESS PERIOD      4
 UBDSV06 SAVING              GWF IN MODEL GWF_1            PACKAGE UZF-1           CONNECTED TO MODEL GWF_1            PACKAGE GWF_1            ON UNIT   1014 AT TIME STEP     10, STRESS PERIOD      4
 UBDSV06 SAVING     INFILTRATION IN MODEL GWF_1            PACKAGE UZF-1           CONNECTED TO MODEL GWF_1            PACKAGE UZF-1            ON UNIT   1014 AT TIME STEP     10, STRESS PERIOD      4
 UBDSV06 SAVING          REJ-INF IN MODEL GWF_1            PACKAGE UZF-1           CONNECTED TO MODEL GWF_1            PACKAGE UZF-1            ON UNIT   1014 AT TIME STEP     10, STRESS PERIOD      4
 UBDSV06 SAVING             UZET IN MODEL GWF_1            PACKAGE UZF-1           CONNECTED TO MODEL GWF_1            PACKAGE UZF-1            ON UNIT   1014 AT TIME STEP     10, STRESS PERIOD      4
 UBDSV06 SAVING          STORAGE IN MODEL GWF_1            PACKAGE UZF-1           CONNECTED TO MODEL GWF_1            PACKAGE UZF-1            ON UNIT   1014 AT TIME STEP     10, STRESS PERIOD      4

 CHD PACKAGE (CHD-1) FLOW RATES   PERIOD      4   STEP       10
 -----------------------------------------------
   NUMBER   CELLID                    RATE      
 -----------------------------------------------
     1      (3,1,1)               0.0000000     
     2      (3,1,10)              0.0000000     
 -----------------------------------------------




 UZF-GWRCH PACKAGE (UZF-1) FLOW RATES   PERIOD      4   STEP       10
 ----------------------------------------------------------------------------------------
   NUMBER   CELLID                    RATE       NAME                                    
 ----------------------------------------------------------------------------------------
     1      (1,1,2)               0.0000000      UZF01                                   
     2      (1,1,3)               0.0000000      UZF02                                   
     3      (1,1,4)               0.0000000      UZF03                                   
     4      (1,1,5)               0.0000000      UZF04                                   
     5      (1,1,6)               0.0000000      UZF05                                   
     6      (1,1,7)               0.0000000      UZF06                                   
     7      (1,1,8)               0.0000000      UZF07                                   
     8      (1,1,9)               0.0000000      UZF08                                   
     9      (2,1,2)               0.0000000      UZF08                                   
     10     (2,1,3)               0.0000000      UZF10                                   
     11     (2,1,4)               0.0000000      UZF11                                   
     12     (2,1,5)               0.0000000      UZF12                                   
     13     (2,1,6)               0.0000000      UZF13                                   
     14     (2,1,7)               0.0000000      UZF14                                   
     15     (2,1,8)               0.0000000      UZF15                                   
     16     (2,1,9)               0.0000000      UZF16                                   
     17     (3,1,2)               0.0000000      UZF17                                   
     18     (3,1,3)               0.0000000      UZF18                                   
     19     (3,1,4)               0.0000000      UZF19                                   
     20     (3,1,5)               0.0000000      UZF20                                   
     21     (3,1,6)               0.0000000      UZF21                                   
     22     (3,1,7)               0.0000000      UZF22                                   
     23     (3,1,8)               0.0000000      UZF23                                   
     24     (3,1,9)               0.0000000      UZF24                                   
 ----------------------------------------------------------------------------------------




 UZF-GWD PACKAGE (UZF-1) FLOW RATES   PERIOD      4   STEP       10
 ----------------------------------------------------------------------------------------
   NUMBER   CELLID                    RATE       NAME                                    
 ----------------------------------------------------------------------------------------
     1      (1,1,2)               0.0000000      UZF01                                   
     2      (1,1,3)               0.0000000      UZF02                                   
     3      (1,1,4)               0.0000000      UZF03                                   
     4      (1,1,5)               0.0000000      UZF04                                   
     5      (1,1,6)               0.0000000      UZF05                                   
     6      (1,1,7)               0.0000000      UZF06                                   
     7      (1,1,8)               0.0000000      UZF07                                   
     8      (1,1,9)               0.0000000      UZF08                                   
     9      (2,1,2)               0.0000000      UZF08                                   
     10     (2,1,3)               0.0000000      UZF10                                   
     11     (2,1,4)               0.0000000      UZF11                                   
     12     (2,1,5)               0.0000000      UZF12                                   
     13     (2,1,6)               0.0000000      UZF13                                   
     14     (2,1,7)               0.0000000      UZF14                                   
     15     (2,1,8)               0.0000000      UZF15                                   
     16     (2,1,9)               0.0000000      UZF16                                   
     17     (3,1,2)               0.0000000      UZF17                                   
     18     (3,1,3)               0.0000000      UZF18                                   
     19     (3,1,4)               0.0000000      UZF19                                   
     20     (3,1,5)               0.0000000      UZF20                                   
     21     (3,1,6)               0.0000000      UZF21                                   
     22     (3,1,7)               0.0000000      UZF22                                   
     23     (3,1,8)               0.0000000      UZF23                                   
     24     (3,1,9)               0.0000000      UZF24                                   
 ----------------------------------------------------------------------------------------




 UZF-GWET PACKAGE (UZF-1) FLOW RATES   PERIOD      4   STEP       10
 ----------------------------------------------------------------------------------------
   NUMBER   CELLID                    RATE       NAME                                    
 ----------------------------------------------------------------------------------------
     1      (1,1,2)               0.0000000      UZF01                                   
     2      (1,1,3)               0.0000000      UZF02                                   
     3      (1,1,4)               0.0000000      UZF03                                   
     4      (1,1,5)               0.0000000      UZF04                                   
     5      (1,1,6)               0.0000000      UZF05                                   
     6      (1,1,7)               0.0000000      UZF06                                   
     7      (1,1,8)               0.0000000      UZF07                                   
     8      (1,1,9)               0.0000000      UZF08                                   
     9      (2,1,2)               0.0000000      UZF08                                   
     10     (2,1,3)               0.0000000      UZF10                                   
     11     (2,1,4)               0.0000000      UZF11                                   
     12     (2,1,5)               0.0000000      UZF12                                   
     13     (2,1,6)               0.0000000      UZF13                                   
     14     (2,1,7)               0.0000000      UZF14                                   
     15     (2,1,8)               0.0000000      UZF15                                   
     16     (2,1,9)               0.0000000      UZF16                                   
     17     (3,1,2)               0.0000000      UZF17                                   
     18     (3,1,3)               0.0000000      UZF18                                   
     19     (3,1,4)               0.0000000      UZF19                                   
     20     (3,1,5)               0.0000000      UZF20                                   
     21     (3,1,6)               0.0000000      UZF21                                   
     22     (3,1,7)               0.0000000      UZF22                                   
     23     (3,1,8)               0.0000000      UZF23                                   
     24     (3,1,9)               0.0000000      UZF24                                   
 ----------------------------------------------------------------------------------------




 UZF-1 PACKAGE - SUMMARY OF FLOWS FOR EACH CONTROL VOLUME   PERIOD      4   STEP       10
 ----------------------------------------------------------------------------------------------------------------------------------------------------
                                                                                                                                           PERCENT   
   NUMBER   CELLID                  INFLOW      OUTFLOW        GWF      INFILTRATION   REJ INF        UZET       STORAGE      IN - OUT    DIFFERENCE 
 ----------------------------------------------------------------------------------------------------------------------------------------------------
     1      (1,1,2)               0.0000      -15.271       0.0000       0.0000       0.0000      -1.68878E-04  15.299       2.81755E-02  0.18433    
     2      (1,1,3)               0.0000      -15.271       0.0000       0.0000       0.0000      -1.68878E-04  15.299       2.81755E-02  0.18433    
     3      (1,1,4)               0.0000      -15.271       0.0000       0.0000       0.0000      -1.68878E-04  15.299       2.81755E-02  0.18433    
     4      (1,1,5)               0.0000      -15.271       0.0000       0.0000       0.0000      -1.68878E-04  15.299       2.81755E-02  0.18433    
     5      (1,1,6)               0.0000      -15.271       0.0000       0.0000       0.0000      -1.68878E-04  15.299       2.81755E-02  0.18433    
     6      (1,1,7)               0.0000      -15.271       0.0000       0.0000       0.0000      -1.68878E-04  15.299       2.81755E-02  0.18433    
     7      (1,1,8)               0.0000      -15.271       0.0000       0.0000       0.0000      -1.68878E-04  15.299       2.81755E-02  0.18433    
     8      (1,1,9)               0.0000      -15.271       0.0000       0.0000       0.0000      -1.68878E-04  15.299       2.81755E-02  0.18433    
     9      (2,1,2)               15.271       0.0000       0.0000       0.0000       0.0000      -6.98817E-02 -15.201       1.83165E-06  1.19943E-05
     10     (2,1,3)               15.271       0.0000       0.0000       0.0000       0.0000      -6.98817E-02 -15.201       1.83165E-06  1.19943E-05
     11     (2,1,4)               15.271       0.0000       0.0000       0.0000       0.0000      -6.98817E-02 -15.201       1.83165E-06  1.19943E-05
     12     (2,1,5)               15.271       0.0000       0.0000       0.0000       0.0000      -6.98817E-02 -15.201       1.83165E-06  1.19943E-05
     13     (2,1,6)               15.271       0.0000       0.0000       0.0000       0.0000      -6.98817E-02 -15.201       1.83165E-06  1.19943E-05
     14     (2,1,7)               15.271       0.0000       0.0000       0.0000       0.0000      -6.98817E-02 -15.201       1.83165E-06  1.19943E-05
     15     (2,1,8)               15.271       0.0000       0.0000       0.0000       0.0000      -6.98817E-02 -15.201       1.83165E-06  1.19943E-05
     16     (2,1,9)               15.271       0.0000       0.0000       0.0000       0.0000      -6.98817E-02 -15.201       1.83165E-06  1.19943E-05
     17     (3,1,2)               0.0000       0.0000       0.0000       0.0000       0.0000       0.0000       0.0000       0.0000       0.0000     
     18     (3,1,3)               0.0000       0.0000       0.0000       0.0000       0.0000       0.0000       0.0000       0.0000       0.0000     
     19     (3,1,4)               0.0000       0.0000       0.0000       0.0000       0.0000       0.0000       0.0000       0.0000       0.0000     
     20     (3,1,5)               0.0000       0.0000       0.0000       0.0000       0.0000       0.0000       0.0000       0.0000       0.0000     
     21     (3,1,6)               0.0000       0.0000       0.0000       0.0000       0.0000       0.0000       0.0000       0.0000       0.0000     
     22     (3,1,7)               0.0000       0.0000       0.0000       0.0000       0.0000       0.0000       0.0000       0.0000       0.0000     
     23     (3,1,8)               0.0000       0.0000       0.0000       0.0000       0.0000       0.0000       0.0000       0.0000       0.0000     
     24     (3,1,9)               0.0000       0.0000       0.0000       0.0000       0.0000       0.0000       0.0000       0.0000       0.0000     
 ----------------------------------------------------------------------------------------------------------------------------------------------------


1
  HEAD IN LAYER   1 AT END OF TIME STEP  10 IN STRESS PERIOD    4
  ---------------------------------------------------------------------------

            1           2           3           4           5           6           7           8           9          10
 ........................................................................................................................
   1   -25.00      -25.00      -25.00      -25.00      -25.00      -25.00      -25.00      -25.00      -25.00      -25.00    
1
  HEAD IN LAYER   2 AT END OF TIME STEP  10 IN STRESS PERIOD    4
  ---------------------------------------------------------------------------

            1           2           3           4           5           6           7           8           9          10
 ........................................................................................................................
   1   -25.00      -25.00      -25.00      -25.00      -25.00      -25.00      -25.00      -25.00      -25.00      -25.00    
1
  HEAD IN LAYER   3 AT END OF TIME STEP  10 IN STRESS PERIOD    4
  ---------------------------------------------------------------------------

            1           2           3           4           5           6           7           8           9          10
 ........................................................................................................................
   1   -25.00      -25.00      -25.00      -25.00      -25.00      -25.00      -25.00      -25.00      -25.00      -25.00    

 HEAD WILL BE SAVED ON UNIT 1022 AT END OF TIME STEP   10, STRESS PERIOD    4


  UZF-1 BUDGET FOR ENTIRE MODEL AT END OF TIME STEP   10, STRESS PERIOD   4
  ------------------------------------------------------------------------------

     CUMULATIVE UZF-1      L**3       RATES FOR THIS TIME STEP      L**3/T
     ------------------                 ------------------------

           IN:                                      IN:
           ---                                      ---
                 GWF =           0.0000                   GWF =           0.0000
        INFILTRATION =      480000.0000          INFILTRATION =           0.0000
             REJ-INF =           0.0000               REJ-INF =           0.0000
                UZET =           0.0000                  UZET =           0.0000
             STORAGE =      282663.1457               STORAGE =         122.3955

            TOTAL IN =      762663.1457              TOTAL IN =         122.3955

          OUT:                                     OUT:
          ----                                     ----
                 GWF =           0.0000                   GWF =           0.0000
        INFILTRATION =           0.0000          INFILTRATION =           0.0000
             REJ-INF =           0.0000               REJ-INF =           0.0000
                UZET =         295.1201                  UZET =           0.5604
             STORAGE =      762311.6103               STORAGE =         121.6096

           TOTAL OUT =      762606.7305             TOTAL OUT =         122.1700

            IN - OUT =          56.4152              IN - OUT =           0.2254

 PERCENT DISCREPANCY =           0.01     PERCENT DISCREPANCY =           0.18



  VOLUME BUDGET FOR ENTIRE MODEL AT END OF TIME STEP   10, STRESS PERIOD   4
  ---------------------------------------------------------------------------------------------------

     CUMULATIVE VOLUME      L**3       RATES FOR THIS TIME STEP      L**3/T          PACKAGE NAME    
     ------------------                 ------------------------                     ----------------

           IN:                                      IN:
           ---                                      ---
              STO-SS =           0.0000                STO-SS =           0.0000     STORAGE         
              STO-SY =           0.0000                STO-SY =           0.0000     STORAGE         
                 CHD =           0.0000                   CHD =           0.0000     CHD-1           
           UZF-GWRCH =           0.0000             UZF-GWRCH =           0.0000     UZF-1           
             UZF-GWD =           0.0000               UZF-GWD =           0.0000     UZF-1           
            UZF-GWET =           0.0000              UZF-GWET =           0.0000     UZF-1           

            TOTAL IN =           0.0000              TOTAL IN =           0.0000

          OUT:                                     OUT:
          ----                                     ----
              STO-SS =           0.0000                STO-SS =           0.0000     STORAGE         
              STO-SY =           0.0000                STO-SY =           0.0000     STORAGE         
                 CHD =           0.0000                   CHD =           0.0000     CHD-1           
           UZF-GWRCH =           0.0000             UZF-GWRCH =           0.0000     UZF-1           
             UZF-GWD =           0.0000               UZF-GWD =           0.0000     UZF-1           
            UZF-GWET =           0.0000              UZF-GWET =           0.0000     UZF-1           

           TOTAL OUT =           0.0000             TOTAL OUT =           0.0000

            IN - OUT =           0.0000              IN - OUT =           0.0000

 PERCENT DISCREPANCY =           0.00     PERCENT DISCREPANCY =           0.00




         TIME SUMMARY AT END OF TIME STEP   10 IN STRESS PERIOD    4
                    SECONDS     MINUTES      HOURS       DAYS        YEARS
                    -----------------------------------------------------------
   TIME STEP LENGTH 4.32000E+06  72000.      1200.0      50.000     0.13689    
 STRESS PERIOD TIME 4.32000E+07 7.20000E+05  12000.      500.00      1.3689    
         TOTAL TIME 4.83840E+07 8.06400E+05  13440.      560.00      1.5332    


end timestep


start timestep kper="5" kstp="1" mode="normal"


 OUTPUT CONTROL FOR STRESS PERIOD 5 IS REPEATED USING SETTINGS FROM A PREVIOUS STRESS PERIOD.


 STRESS PERIOD 5 IS TRANSIENT


 REUSING CHDS FROM LAST STRESS PERIOD

 UZF CELLS PACKAGE (UZF-1) DATA FOR PERIOD      5
 ----------------------------------------------------------------------------------------------------------------------------
   NUMBER   CELLID                   FINF         PET         EXTDEP       EXTWC     BOUNDNAME                               
 ----------------------------------------------------------------------------------------------------------------------------
     1      (1,1,2)               0.0000       1.00000E-06  15.000       7.00000E-02 UZF01                                   
     2      (1,1,3)               0.0000       1.00000E-06  15.000       7.00000E-02 UZF02                                   
     3      (1,1,4)               0.0000       1.00000E-06  15.000       7.00000E-02 UZF03                                   
     4      (1,1,5)               0.0000       1.00000E-06  15.000       7.00000E-02 UZF04                                   
     5      (1,1,6)               0.0000       1.00000E-06  15.000       7.00000E-02 UZF05                                   
     6      (1,1,7)               0.0000       1.00000E-06  15.000       7.00000E-02 UZF06                                   
     7      (1,1,8)               0.0000       1.00000E-06  15.000       7.00000E-02 UZF07                                   
     8      (1,1,9)               0.0000       1.00000E-06  15.000       7.00000E-02 UZF08                                   
     9      (2,1,2)               0.0000       1.00000E-06  15.000       7.00000E-02 UZF08                                   
     10     (2,1,3)               0.0000       1.00000E-06  15.000       7.00000E-02 UZF10                                   
     11     (2,1,4)               0.0000       1.00000E-06  15.000       7.00000E-02 UZF11                                   
     12     (2,1,5)               0.0000       1.00000E-06  15.000       7.00000E-02 UZF12                                   
     13     (2,1,6)               0.0000       1.00000E-06  15.000       7.00000E-02 UZF13                                   
     14     (2,1,7)               0.0000       1.00000E-06  15.000       7.00000E-02 UZF14                                   
     15     (2,1,8)               0.0000       1.00000E-06  15.000       7.00000E-02 UZF15                                   
     16     (2,1,9)               0.0000       1.00000E-06  15.000       7.00000E-02 UZF16                                   
 ----------------------------------------------------------------------------------------------------------------------------


 UBDSV1 SAVING     FLOW-JA-FACE ON UNIT   1020 AT TIME STEP      1, STRESS PERIOD      5
 UBDSV06 SAVING     FLOW-JA-FACE IN MODEL GWF_1            PACKAGE UZF-1           CONNECTED TO MODEL GWF_1            PACKAGE UZF-1            ON UNIT   1014 AT TIME STEP      1, STRESS PERIOD      5
 UBDSV06 SAVING              GWF IN MODEL GWF_1            PACKAGE UZF-1           CONNECTED TO MODEL GWF_1            PACKAGE GWF_1            ON UNIT   1014 AT TIME STEP      1, STRESS PERIOD      5
 UBDSV06 SAVING     INFILTRATION IN MODEL GWF_1            PACKAGE UZF-1           CONNECTED TO MODEL GWF_1            PACKAGE UZF-1            ON UNIT   1014 AT TIME STEP      1, STRESS PERIOD      5
 UBDSV06 SAVING          REJ-INF IN MODEL GWF_1            PACKAGE UZF-1           CONNECTED TO MODEL GWF_1            PACKAGE UZF-1            ON UNIT   1014 AT TIME STEP      1, STRESS PERIOD      5
 UBDSV06 SAVING             UZET IN MODEL GWF_1            PACKAGE UZF-1           CONNECTED TO MODEL GWF_1            PACKAGE UZF-1            ON UNIT   1014 AT TIME STEP      1, STRESS PERIOD      5
 UBDSV06 SAVING          STORAGE IN MODEL GWF_1            PACKAGE UZF-1           CONNECTED TO MODEL GWF_1            PACKAGE UZF-1            ON UNIT   1014 AT TIME STEP      1, STRESS PERIOD      5

 CHD PACKAGE (CHD-1) FLOW RATES   PERIOD      5   STEP        1
 -----------------------------------------------
   NUMBER   CELLID                    RATE      
 -----------------------------------------------
     1      (3,1,1)               0.0000000     
     2      (3,1,10)              0.0000000     
 -----------------------------------------------




 UZF-GWRCH PACKAGE (UZF-1) FLOW RATES   PERIOD      5   STEP        1
 ----------------------------------------------------------------------------------------
   NUMBER   CELLID                    RATE       NAME                                    
 ----------------------------------------------------------------------------------------
     1      (1,1,2)               0.0000000      UZF01                                   
     2      (1,1,3)               0.0000000      UZF02                                   
     3      (1,1,4)               0.0000000      UZF03                                   
     4      (1,1,5)               0.0000000      UZF04                                   
     5      (1,1,6)               0.0000000      UZF05                                   
     6      (1,1,7)               0.0000000      UZF06                                   
     7      (1,1,8)               0.0000000      UZF07                                   
     8      (1,1,9)               0.0000000      UZF08                                   
     9      (2,1,2)               0.0000000      UZF08                                   
     10     (2,1,3)               0.0000000      UZF10                                   
     11     (2,1,4)               0.0000000      UZF11                                   
     12     (2,1,5)               0.0000000      UZF12                                   
     13     (2,1,6)               0.0000000      UZF13                                   
     14     (2,1,7)               0.0000000      UZF14                                   
     15     (2,1,8)               0.0000000      UZF15                                   
     16     (2,1,9)               0.0000000      UZF16                                   
     17     (3,1,2)               0.0000000      UZF17                                   
     18     (3,1,3)               0.0000000      UZF18                                   
     19     (3,1,4)               0.0000000      UZF19                                   
     20     (3,1,5)               0.0000000      UZF20                                   
     21     (3,1,6)               0.0000000      UZF21                                   
     22     (3,1,7)               0.0000000      UZF22                                   
     23     (3,1,8)               0.0000000      UZF23                                   
     24     (3,1,9)               0.0000000      UZF24                                   
 ----------------------------------------------------------------------------------------




 UZF-GWD PACKAGE (UZF-1) FLOW RATES   PERIOD      5   STEP        1
 ----------------------------------------------------------------------------------------
   NUMBER   CELLID                    RATE       NAME                                    
 ----------------------------------------------------------------------------------------
     1      (1,1,2)               0.0000000      UZF01                                   
     2      (1,1,3)               0.0000000      UZF02                                   
     3      (1,1,4)               0.0000000      UZF03                                   
     4      (1,1,5)               0.0000000      UZF04                                   
     5      (1,1,6)               0.0000000      UZF05                                   
     6      (1,1,7)               0.0000000      UZF06                                   
     7      (1,1,8)               0.0000000      UZF07                                   
     8      (1,1,9)               0.0000000      UZF08                                   
     9      (2,1,2)               0.0000000      UZF08                                   
     10     (2,1,3)               0.0000000      UZF10                                   
     11     (2,1,4)               0.0000000      UZF11                                   
     12     (2,1,5)               0.0000000      UZF12                                   
     13     (2,1,6)               0.0000000      UZF13                                   
     14     (2,1,7)               0.0000000      UZF14                                   
     15     (2,1,8)               0.0000000      UZF15                                   
     16     (2,1,9)               0.0000000      UZF16                                   
     17     (3,1,2)               0.0000000      UZF17                                   
     18     (3,1,3)               0.0000000      UZF18                                   
     19     (3,1,4)               0.0000000      UZF19                                   
     20     (3,1,5)               0.0000000      UZF20                                   
     21     (3,1,6)               0.0000000      UZF21                                   
     22     (3,1,7)               0.0000000      UZF22                                   
     23     (3,1,8)               0.0000000      UZF23                                   
     24     (3,1,9)               0.0000000      UZF24                                   
 ----------------------------------------------------------------------------------------




 UZF-GWET PACKAGE (UZF-1) FLOW RATES   PERIOD      5   STEP        1
 ----------------------------------------------------------------------------------------
   NUMBER   CELLID                    RATE       NAME                                    
 ----------------------------------------------------------------------------------------
     1      (1,1,2)               0.0000000      UZF01                                   
     2      (1,1,3)               0.0000000      UZF02                                   
     3      (1,1,4)               0.0000000      UZF03                                   
     4      (1,1,5)               0.0000000      UZF04                                   
     5      (1,1,6)               0.0000000      UZF05                                   
     6      (1,1,7)               0.0000000      UZF06                                   
     7      (1,1,8)               0.0000000      UZF07                                   
     8      (1,1,9)               0.0000000      UZF08                                   
     9      (2,1,2)               0.0000000      UZF08                                   
     10     (2,1,3)               0.0000000      UZF10                                   
     11     (2,1,4)               0.0000000      UZF11                                   
     12     (2,1,5)               0.0000000      UZF12                                   
     13     (2,1,6)               0.0000000      UZF13                                   
     14     (2,1,7)               0.0000000      UZF14                                   
     15     (2,1,8)               0.0000000      UZF15                                   
     16     (2,1,9)               0.0000000      UZF16                                   
     17     (3,1,2)               0.0000000      UZF17                                   
     18     (3,1,3)               0.0000000      UZF18                                   
     19     (3,1,4)               0.0000000      UZF19                                   
     20     (3,1,5)               0.0000000      UZF20                                   
     21     (3,1,6)               0.0000000      UZF21                                   
     22     (3,1,7)               0.0000000      UZF22                                   
     23     (3,1,8)               0.0000000      UZF23                                   
     24     (3,1,9)               0.0000000      UZF24                                   
 ----------------------------------------------------------------------------------------




 UZF-1 PACKAGE - SUMMARY OF FLOWS FOR EACH CONTROL VOLUME   PERIOD      5   STEP        1
 ----------------------------------------------------------------------------------------------------------------------------------------------------
                                                                                                                                           PERCENT   
   NUMBER   CELLID                  INFLOW      OUTFLOW        GWF      INFILTRATION   REJ INF        UZET       STORAGE      IN - OUT    DIFFERENCE 
 ----------------------------------------------------------------------------------------------------------------------------------------------------
     1      (1,1,2)               0.0000      -2.1730       0.0000       0.0000       0.0000       0.0000       2.1752       2.21470E-03  0.10187    
     2      (1,1,3)               0.0000      -2.1730       0.0000       0.0000       0.0000       0.0000       2.1752       2.21470E-03  0.10187    
     3      (1,1,4)               0.0000      -2.1730       0.0000       0.0000       0.0000       0.0000       2.1752       2.21470E-03  0.10187    
     4      (1,1,5)               0.0000      -2.1730       0.0000       0.0000       0.0000       0.0000       2.1752       2.21470E-03  0.10187    
     5      (1,1,6)               0.0000      -2.1730       0.0000       0.0000       0.0000       0.0000       2.1752       2.21470E-03  0.10187    
     6      (1,1,7)               0.0000      -2.1730       0.0000       0.0000       0.0000       0.0000       2.1752       2.21470E-03  0.10187    
     7      (1,1,8)               0.0000      -2.1730       0.0000       0.0000       0.0000       0.0000       2.1752       2.21470E-03  0.10187    
     8      (1,1,9)               0.0000      -2.1730       0.0000       0.0000       0.0000       0.0000       2.1752       2.21470E-03  0.10187    
     9      (2,1,2)               2.1730       0.0000       0.0000       0.0000       0.0000      -7.00000E-02 -2.1030       5.12164E-07  2.35692E-05
     10     (2,1,3)               2.1730       0.0000       0.0000       0.0000       0.0000      -7.00000E-02 -2.1030       5.12164E-07  2.35692E-05
     11     (2,1,4)               2.1730       0.0000       0.0000       0.0000       0.0000      -7.00000E-02 -2.1030       5.12164E-07  2.35692E-05
     12     (2,1,5)               2.1730       0.0000       0.0000       0.0000       0.0000      -7.00000E-02 -2.1030       5.12164E-07  2.35692E-05
     13     (2,1,6)               2.1730       0.0000       0.0000       0.0000       0.0000      -7.00000E-02 -2.1030       5.12164E-07  2.35692E-05
     14     (2,1,7)               2.1730       0.0000       0.0000       0.0000       0.0000      -7.00000E-02 -2.1030       5.12164E-07  2.35692E-05
     15     (2,1,8)               2.1730       0.0000       0.0000       0.0000       0.0000      -7.00000E-02 -2.1030       5.12164E-07  2.35692E-05
     16     (2,1,9)               2.1730       0.0000       0.0000       0.0000       0.0000      -7.00000E-02 -2.1030       5.12164E-07  2.35692E-05
     17     (3,1,2)               0.0000       0.0000       0.0000       0.0000       0.0000       0.0000       0.0000       0.0000       0.0000     
     18     (3,1,3)               0.0000       0.0000       0.0000       0.0000       0.0000       0.0000       0.0000       0.0000       0.0000     
     19     (3,1,4)               0.0000       0.0000       0.0000       0.0000       0.0000       0.0000       0.0000       0.0000       0.0000     
     20     (3,1,5)               0.0000       0.0000       0.0000       0.0000       0.0000       0.0000       0.0000       0.0000       0.0000     
     21     (3,1,6)               0.0000       0.0000       0.0000       0.0000       0.0000       0.0000       0.0000       0.0000       0.0000     
     22     (3,1,7)               0.0000       0.0000       0.0000       0.0000       0.0000       0.0000       0.0000       0.0000       0.0000     
     23     (3,1,8)               0.0000       0.0000       0.0000       0.0000       0.0000       0.0000       0.0000       0.0000       0.0000     
     24     (3,1,9)               0.0000       0.0000       0.0000       0.0000       0.0000       0.0000       0.0000       0.0000       0.0000     
 ----------------------------------------------------------------------------------------------------------------------------------------------------


1
  HEAD IN LAYER   1 AT END OF TIME STEP   1 IN STRESS PERIOD    5
  ---------------------------------------------------------------------------

            1           2           3           4           5           6           7           8           9          10
 ........................................................................................................................
   1   -25.00      -25.00      -25.00      -25.00      -25.00      -25.00      -25.00      -25.00      -25.00      -25.00    
1
  HEAD IN LAYER   2 AT END OF TIME STEP   1 IN STRESS PERIOD    5
  ---------------------------------------------------------------------------

            1           2           3           4           5           6           7           8           9          10
 ........................................................................................................................
   1   -25.00      -25.00      -25.00      -25.00      -25.00      -25.00      -25.00      -25.00      -25.00      -25.00    
1
  HEAD IN LAYER   3 AT END OF TIME STEP   1 IN STRESS PERIOD    5
  ---------------------------------------------------------------------------

            1           2           3           4           5           6           7           8           9          10
 ........................................................................................................................
   1   -25.00      -25.00      -25.00      -25.00      -25.00      -25.00      -25.00      -25.00      -25.00      -25.00    

 HEAD WILL BE SAVED ON UNIT 1022 AT END OF TIME STEP    1, STRESS PERIOD    5


  UZF-1 BUDGET FOR ENTIRE MODEL AT END OF TIME STEP    1, STRESS PERIOD   5
  ------------------------------------------------------------------------------

     CUMULATIVE UZF-1      L**3       RATES FOR THIS TIME STEP      L**3/T
     ------------------                 ------------------------

           IN:                                      IN:
           ---                                      ---
                 GWF =           0.0000                   GWF =           0.0000
        INFILTRATION =      480000.0000          INFILTRATION =           0.0000
             REJ-INF =           0.0000               REJ-INF =           0.0000
                UZET =           0.0000                  UZET =           0.0000
             STORAGE =      283359.2205               STORAGE =          17.4019

            TOTAL IN =      763359.2205              TOTAL IN =          17.4019

          OUT:                                     OUT:
          ----                                     ----
                 GWF =           0.0000                   GWF =           0.0000
        INFILTRATION =           0.0000          INFILTRATION =           0.0000
             REJ-INF =           0.0000               REJ-INF =           0.0000
                UZET =         317.5201                  UZET =           0.5600
             STORAGE =      762984.5763               STORAGE =          16.8241

           TOTAL OUT =      763302.0964             TOTAL OUT =          17.3841

            IN - OUT =          57.1241              IN - OUT =       1.7722E-02

 PERCENT DISCREPANCY =           0.01     PERCENT DISCREPANCY =           0.10



  VOLUME BUDGET FOR ENTIRE MODEL AT END OF TIME STEP    1, STRESS PERIOD   5
  ---------------------------------------------------------------------------------------------------

     CUMULATIVE VOLUME      L**3       RATES FOR THIS TIME STEP      L**3/T          PACKAGE NAME    
     ------------------                 ------------------------                     ----------------

           IN:                                      IN:
           ---                                      ---
              STO-SS =           0.0000                STO-SS =           0.0000     STORAGE         
              STO-SY =           0.0000                STO-SY =           0.0000     STORAGE         
                 CHD =           0.0000                   CHD =           0.0000     CHD-1           
           UZF-GWRCH =           0.0000             UZF-GWRCH =           0.0000     UZF-1           
             UZF-GWD =           0.0000               UZF-GWD =           0.0000     UZF-1           
            UZF-GWET =           0.0000              UZF-GWET =           0.0000     UZF-1           

            TOTAL IN =           0.0000              TOTAL IN =           0.0000

          OUT:                                     OUT:
          ----                                     ----
              STO-SS =           0.0000                STO-SS =           0.0000     STORAGE         
              STO-SY =           0.0000                STO-SY =           0.0000     STORAGE         
                 CHD =           0.0000                   CHD =           0.0000     CHD-1           
           UZF-GWRCH =           0.0000             UZF-GWRCH =           0.0000     UZF-1           
             UZF-GWD =           0.0000               UZF-GWD =           0.0000     UZF-1           
            UZF-GWET =           0.0000              UZF-GWET =           0.0000     UZF-1           

           TOTAL OUT =           0.0000             TOTAL OUT =           0.0000

            IN - OUT =           0.0000              IN - OUT =           0.0000

 PERCENT DISCREPANCY =           0.00     PERCENT DISCREPANCY =           0.00




         TIME SUMMARY AT END OF TIME STEP    1 IN STRESS PERIOD    5
                    SECONDS     MINUTES      HOURS       DAYS        YEARS
                    -----------------------------------------------------------
   TIME STEP LENGTH 3.45600E+06  57600.      960.00      40.000     0.10951    
 STRESS PERIOD TIME 3.45600E+06  57600.      960.00      40.000     0.10951    
         TOTAL TIME 5.18400E+07 8.64000E+05  14400.      600.00      1.6427    


end timestep


start timestep kper="5" kstp="2" mode="normal"

 UBDSV1 SAVING     FLOW-JA-FACE ON UNIT   1020 AT TIME STEP      2, STRESS PERIOD      5
 UBDSV06 SAVING     FLOW-JA-FACE IN MODEL GWF_1            PACKAGE UZF-1           CONNECTED TO MODEL GWF_1            PACKAGE UZF-1            ON UNIT   1014 AT TIME STEP      2, STRESS PERIOD      5
 UBDSV06 SAVING              GWF IN MODEL GWF_1            PACKAGE UZF-1           CONNECTED TO MODEL GWF_1            PACKAGE GWF_1            ON UNIT   1014 AT TIME STEP      2, STRESS PERIOD      5
 UBDSV06 SAVING     INFILTRATION IN MODEL GWF_1            PACKAGE UZF-1           CONNECTED TO MODEL GWF_1            PACKAGE UZF-1            ON UNIT   1014 AT TIME STEP      2, STRESS PERIOD      5
 UBDSV06 SAVING          REJ-INF IN MODEL GWF_1            PACKAGE UZF-1           CONNECTED TO MODEL GWF_1            PACKAGE UZF-1            ON UNIT   1014 AT TIME STEP      2, STRESS PERIOD      5
 UBDSV06 SAVING             UZET IN MODEL GWF_1            PACKAGE UZF-1           CONNECTED TO MODEL GWF_1            PACKAGE UZF-1            ON UNIT   1014 AT TIME STEP      2, STRESS PERIOD      5
 UBDSV06 SAVING          STORAGE IN MODEL GWF_1            PACKAGE UZF-1           CONNECTED TO MODEL GWF_1            PACKAGE UZF-1            ON UNIT   1014 AT TIME STEP      2, STRESS PERIOD      5

 CHD PACKAGE (CHD-1) FLOW RATES   PERIOD      5   STEP        2
 -----------------------------------------------
   NUMBER   CELLID                    RATE      
 -----------------------------------------------
     1      (3,1,1)               0.0000000     
     2      (3,1,10)              0.0000000     
 -----------------------------------------------




 UZF-GWRCH PACKAGE (UZF-1) FLOW RATES   PERIOD      5   STEP        2
 ----------------------------------------------------------------------------------------
   NUMBER   CELLID                    RATE       NAME                                    
 ----------------------------------------------------------------------------------------
     1      (1,1,2)               0.0000000      UZF01                                   
     2      (1,1,3)               0.0000000      UZF02                                   
     3      (1,1,4)               0.0000000      UZF03                                   
     4      (1,1,5)               0.0000000      UZF04                                   
     5      (1,1,6)               0.0000000      UZF05                                   
     6      (1,1,7)               0.0000000      UZF06                                   
     7      (1,1,8)               0.0000000      UZF07                                   
     8      (1,1,9)               0.0000000      UZF08                                   
     9      (2,1,2)               0.0000000      UZF08                                   
     10     (2,1,3)               0.0000000      UZF10                                   
     11     (2,1,4)               0.0000000      UZF11                                   
     12     (2,1,5)               0.0000000      UZF12                                   
     13     (2,1,6)               0.0000000      UZF13                                   
     14     (2,1,7)               0.0000000      UZF14                                   
     15     (2,1,8)               0.0000000      UZF15                                   
     16     (2,1,9)               0.0000000      UZF16                                   
     17     (3,1,2)               0.0000000      UZF17                                   
     18     (3,1,3)               0.0000000      UZF18                                   
     19     (3,1,4)               0.0000000      UZF19                                   
     20     (3,1,5)               0.0000000      UZF20                                   
     21     (3,1,6)               0.0000000      UZF21                                   
     22     (3,1,7)               0.0000000      UZF22                                   
     23     (3,1,8)               0.0000000      UZF23                                   
     24     (3,1,9)               0.0000000      UZF24                                   
 ----------------------------------------------------------------------------------------




 UZF-GWD PACKAGE (UZF-1) FLOW RATES   PERIOD      5   STEP        2
 ----------------------------------------------------------------------------------------
   NUMBER   CELLID                    RATE       NAME                                    
 ----------------------------------------------------------------------------------------
     1      (1,1,2)               0.0000000      UZF01                                   
     2      (1,1,3)               0.0000000      UZF02                                   
     3      (1,1,4)               0.0000000      UZF03                                   
     4      (1,1,5)               0.0000000      UZF04                                   
     5      (1,1,6)               0.0000000      UZF05                                   
     6      (1,1,7)               0.0000000      UZF06                                   
     7      (1,1,8)               0.0000000      UZF07                                   
     8      (1,1,9)               0.0000000      UZF08                                   
     9      (2,1,2)               0.0000000      UZF08                                   
     10     (2,1,3)               0.0000000      UZF10                                   
     11     (2,1,4)               0.0000000      UZF11                                   
     12     (2,1,5)               0.0000000      UZF12                                   
     13     (2,1,6)               0.0000000      UZF13                                   
     14     (2,1,7)               0.0000000      UZF14                                   
     15     (2,1,8)               0.0000000      UZF15                                   
     16     (2,1,9)               0.0000000      UZF16                                   
     17     (3,1,2)               0.0000000      UZF17                                   
     18     (3,1,3)               0.0000000      UZF18                                   
     19     (3,1,4)               0.0000000      UZF19                                   
     20     (3,1,5)               0.0000000      UZF20                                   
     21     (3,1,6)               0.0000000      UZF21                                   
     22     (3,1,7)               0.0000000      UZF22                                   
     23     (3,1,8)               0.0000000      UZF23                                   
     24     (3,1,9)               0.0000000      UZF24                                   
 ----------------------------------------------------------------------------------------




 UZF-GWET PACKAGE (UZF-1) FLOW RATES   PERIOD      5   STEP        2
 ----------------------------------------------------------------------------------------
   NUMBER   CELLID                    RATE       NAME                                    
 ----------------------------------------------------------------------------------------
     1      (1,1,2)               0.0000000      UZF01                                   
     2      (1,1,3)               0.0000000      UZF02                                   
     3      (1,1,4)               0.0000000      UZF03                                   
     4      (1,1,5)               0.0000000      UZF04                                   
     5      (1,1,6)               0.0000000      UZF05                                   
     6      (1,1,7)               0.0000000      UZF06                                   
     7      (1,1,8)               0.0000000      UZF07                                   
     8      (1,1,9)               0.0000000      UZF08                                   
     9      (2,1,2)               0.0000000      UZF08                                   
     10     (2,1,3)               0.0000000      UZF10                                   
     11     (2,1,4)               0.0000000      UZF11                                   
     12     (2,1,5)               0.0000000      UZF12                                   
     13     (2,1,6)               0.0000000      UZF13                                   
     14     (2,1,7)               0.0000000      UZF14                                   
     15     (2,1,8)               0.0000000      UZF15                                   
     16     (2,1,9)               0.0000000      UZF16                                   
     17     (3,1,2)               0.0000000      UZF17                                   
     18     (3,1,3)               0.0000000      UZF18                                   
     19     (3,1,4)               0.0000000      UZF19                                   
     20     (3,1,5)               0.0000000      UZF20                                   
     21     (3,1,6)               0.0000000      UZF21                                   
     22     (3,1,7)               0.0000000      UZF22                                   
     23     (3,1,8)               0.0000000      UZF23                                   
     24     (3,1,9)               0.0000000      UZF24                                   
 ----------------------------------------------------------------------------------------




 UZF-1 PACKAGE - SUMMARY OF FLOWS FOR EACH CONTROL VOLUME   PERIOD      5   STEP        2
 ----------------------------------------------------------------------------------------------------------------------------------------------------
                                                                                                                                           PERCENT   
   NUMBER   CELLID                  INFLOW      OUTFLOW        GWF      INFILTRATION   REJ INF        UZET       STORAGE      IN - OUT    DIFFERENCE 
 ----------------------------------------------------------------------------------------------------------------------------------------------------
     1      (1,1,2)               0.0000      -1.1760       0.0000       0.0000       0.0000       0.0000       1.1760       2.33147E-14  1.98249E-12
     2      (1,1,3)               0.0000      -1.1760       0.0000       0.0000       0.0000       0.0000       1.1760       2.33147E-14  1.98249E-12
     3      (1,1,4)               0.0000      -1.1760       0.0000       0.0000       0.0000       0.0000       1.1760       2.33147E-14  1.98249E-12
     4      (1,1,5)               0.0000      -1.1760       0.0000       0.0000       0.0000       0.0000       1.1760       2.33147E-14  1.98249E-12
     5      (1,1,6)               0.0000      -1.1760       0.0000       0.0000       0.0000       0.0000       1.1760       2.33147E-14  1.98249E-12
     6      (1,1,7)               0.0000      -1.1760       0.0000       0.0000       0.0000       0.0000       1.1760       2.33147E-14  1.98249E-12
     7      (1,1,8)               0.0000      -1.1760       0.0000       0.0000       0.0000       0.0000       1.1760       2.33147E-14  1.98249E-12
     8      (1,1,9)               0.0000      -1.1760       0.0000       0.0000       0.0000       0.0000       1.1760       2.33147E-14  1.98249E-12
     9      (2,1,2)               1.1760      -18.924       0.0000       0.0000       0.0000      -6.89302E-02  17.817       2.64490E-07  1.39257E-06
     10     (2,1,3)               1.1760      -18.924       0.0000       0.0000       0.0000      -6.89302E-02  17.817       2.64490E-07  1.39257E-06
     11     (2,1,4)               1.1760      -18.924       0.0000       0.0000       0.0000      -6.89302E-02  17.817       2.64490E-07  1.39257E-06
     12     (2,1,5)               1.1760      -18.924       0.0000       0.0000       0.0000      -6.89302E-02  17.817       2.64490E-07  1.39257E-06
     13     (2,1,6)               1.1760      -18.924       0.0000       0.0000       0.0000      -6.89302E-02  17.817       2.64490E-07  1.39257E-06
     14     (2,1,7)               1.1760      -18.924       0.0000       0.0000       0.0000      -6.89302E-02  17.817       2.64490E-07  1.39257E-06
     15     (2,1,8)               1.1760      -18.924       0.0000       0.0000       0.0000      -6.89302E-02  17.817       2.64490E-07  1.39257E-06
     16     (2,1,9)               1.1760      -18.924       0.0000       0.0000       0.0000      -6.89302E-02  17.817       2.64490E-07  1.39257E-06
     17     (3,1,2)               18.924       0.0000       0.0000       0.0000       0.0000       0.0000      -18.924       7.10543E-15  3.75470E-14
     18     (3,1,3)               18.924       0.0000       0.0000       0.0000       0.0000       0.0000      -18.924       7.10543E-15  3.75470E-14
     19     (3,1,4)               18.924       0.0000       0.0000       0.0000       0.0000       0.0000      -18.924       7.10543E-15  3.75470E-14
     20     (3,1,5)               18.924       0.0000       0.0000       0.0000       0.0000       0.0000      -18.924       7.10543E-15  3.75470E-14
     21     (3,1,6)               18.924       0.0000       0.0000       0.0000       0.0000       0.0000      -18.924       7.10543E-15  3.75470E-14
     22     (3,1,7)               18.924       0.0000       0.0000       0.0000       0.0000       0.0000      -18.924       7.10543E-15  3.75470E-14
     23     (3,1,8)               18.924       0.0000       0.0000       0.0000       0.0000       0.0000      -18.924       7.10543E-15  3.75470E-14
     24     (3,1,9)               18.924       0.0000       0.0000       0.0000       0.0000       0.0000      -18.924       7.10543E-15  3.75470E-14
 ----------------------------------------------------------------------------------------------------------------------------------------------------


1
  HEAD IN LAYER   1 AT END OF TIME STEP   2 IN STRESS PERIOD    5
  ---------------------------------------------------------------------------

            1           2           3           4           5           6           7           8           9          10
 ........................................................................................................................
   1   -25.00      -25.00      -25.00      -25.00      -25.00      -25.00      -25.00      -25.00      -25.00      -25.00    
1
  HEAD IN LAYER   2 AT END OF TIME STEP   2 IN STRESS PERIOD    5
  ---------------------------------------------------------------------------

            1           2           3           4           5           6           7           8           9          10
 ........................................................................................................................
   1   -25.00      -25.00      -25.00      -25.00      -25.00      -25.00      -25.00      -25.00      -25.00      -25.00    
1
  HEAD IN LAYER   3 AT END OF TIME STEP   2 IN STRESS PERIOD    5
  ---------------------------------------------------------------------------

            1           2           3           4           5           6           7           8           9          10
 ........................................................................................................................
   1   -25.00      -25.00      -25.00      -25.00      -25.00      -25.00      -25.00      -25.00      -25.00      -25.00    

 HEAD WILL BE SAVED ON UNIT 1022 AT END OF TIME STEP    2, STRESS PERIOD    5


  UZF-1 BUDGET FOR ENTIRE MODEL AT END OF TIME STEP    2, STRESS PERIOD   5
  ------------------------------------------------------------------------------

     CUMULATIVE UZF-1      L**3       RATES FOR THIS TIME STEP      L**3/T
     ------------------                 ------------------------

           IN:                                      IN:
           ---                                      ---
                 GWF =           0.0000                   GWF =           0.0000
        INFILTRATION =      480000.0000          INFILTRATION =           0.0000
             REJ-INF =           0.0000               REJ-INF =           0.0000
                UZET =           0.0000                  UZET =           0.0000
             STORAGE =      289436.9838               STORAGE =         151.9441

            TOTAL IN =      769436.9838              TOTAL IN =         151.9441

          OUT:                                     OUT:
          ----                                     ----
                 GWF =           0.0000                   GWF =           0.0000
        INFILTRATION =           0.0000          INFILTRATION =           0.0000
             REJ-INF =           0.0000               REJ-INF =           0.0000
                UZET =         339.5778                  UZET =           0.5514
             STORAGE =      769040.2819               STORAGE =         151.3926

           TOTAL OUT =      769379.8597             TOTAL OUT =         151.9441

            IN - OUT =          57.1242              IN - OUT =       2.1159E-06

 PERCENT DISCREPANCY =           0.01     PERCENT DISCREPANCY =           0.00



  VOLUME BUDGET FOR ENTIRE MODEL AT END OF TIME STEP    2, STRESS PERIOD   5
  ---------------------------------------------------------------------------------------------------

     CUMULATIVE VOLUME      L**3       RATES FOR THIS TIME STEP      L**3/T          PACKAGE NAME    
     ------------------                 ------------------------                     ----------------

           IN:                                      IN:
           ---                                      ---
              STO-SS =           0.0000                STO-SS =           0.0000     STORAGE         
              STO-SY =           0.0000                STO-SY =           0.0000     STORAGE         
                 CHD =           0.0000                   CHD =           0.0000     CHD-1           
           UZF-GWRCH =           0.0000             UZF-GWRCH =           0.0000     UZF-1           
             UZF-GWD =           0.0000               UZF-GWD =           0.0000     UZF-1           
            UZF-GWET =           0.0000              UZF-GWET =           0.0000     UZF-1           

            TOTAL IN =           0.0000              TOTAL IN =           0.0000

          OUT:                                     OUT:
          ----                                     ----
              STO-SS =           0.0000                STO-SS =           0.0000     STORAGE         
              STO-SY =           0.0000                STO-SY =           0.0000     STORAGE         
                 CHD =           0.0000                   CHD =           0.0000     CHD-1           
           UZF-GWRCH =           0.0000             UZF-GWRCH =           0.0000     UZF-1           
             UZF-GWD =           0.0000               UZF-GWD =           0.0000     UZF-1           
            UZF-GWET =           0.0000              UZF-GWET =           0.0000     UZF-1           

           TOTAL OUT =           0.0000             TOTAL OUT =           0.0000

            IN - OUT =           0.0000              IN - OUT =           0.0000

 PERCENT DISCREPANCY =           0.00     PERCENT DISCREPANCY =           0.00




         TIME SUMMARY AT END OF TIME STEP    2 IN STRESS PERIOD    5
                    SECONDS     MINUTES      HOURS       DAYS        YEARS
                    -----------------------------------------------------------
   TIME STEP LENGTH 3.45600E+06  57600.      960.00      40.000     0.10951    
 STRESS PERIOD TIME 6.91200E+06 1.15200E+05  1920.0      80.000     0.21903    
         TOTAL TIME 5.52960E+07 9.21600E+05  15360.      640.00      1.7522    


end timestep


start timestep kper="5" kstp="3" mode="normal"

 UBDSV1 SAVING     FLOW-JA-FACE ON UNIT   1020 AT TIME STEP      3, STRESS PERIOD      5
 UBDSV06 SAVING     FLOW-JA-FACE IN MODEL GWF_1            PACKAGE UZF-1           CONNECTED TO MODEL GWF_1            PACKAGE UZF-1            ON UNIT   1014 AT TIME STEP      3, STRESS PERIOD      5
 UBDSV06 SAVING              GWF IN MODEL GWF_1            PACKAGE UZF-1           CONNECTED TO MODEL GWF_1            PACKAGE GWF_1            ON UNIT   1014 AT TIME STEP      3, STRESS PERIOD      5
 UBDSV06 SAVING     INFILTRATION IN MODEL GWF_1            PACKAGE UZF-1           CONNECTED TO MODEL GWF_1            PACKAGE UZF-1            ON UNIT   1014 AT TIME STEP      3, STRESS PERIOD      5
 UBDSV06 SAVING          REJ-INF IN MODEL GWF_1            PACKAGE UZF-1           CONNECTED TO MODEL GWF_1            PACKAGE UZF-1            ON UNIT   1014 AT TIME STEP      3, STRESS PERIOD      5
 UBDSV06 SAVING             UZET IN MODEL GWF_1            PACKAGE UZF-1           CONNECTED TO MODEL GWF_1            PACKAGE UZF-1            ON UNIT   1014 AT TIME STEP      3, STRESS PERIOD      5
 UBDSV06 SAVING          STORAGE IN MODEL GWF_1            PACKAGE UZF-1           CONNECTED TO MODEL GWF_1            PACKAGE UZF-1            ON UNIT   1014 AT TIME STEP      3, STRESS PERIOD      5

 CHD PACKAGE (CHD-1) FLOW RATES   PERIOD      5   STEP        3
 -----------------------------------------------
   NUMBER   CELLID                    RATE      
 -----------------------------------------------
     1      (3,1,1)               0.0000000     
     2      (3,1,10)              0.0000000     
 -----------------------------------------------




 UZF-GWRCH PACKAGE (UZF-1) FLOW RATES   PERIOD      5   STEP        3
 ----------------------------------------------------------------------------------------
   NUMBER   CELLID                    RATE       NAME                                    
 ----------------------------------------------------------------------------------------
     1      (1,1,2)               0.0000000      UZF01                                   
     2      (1,1,3)               0.0000000      UZF02                                   
     3      (1,1,4)               0.0000000      UZF03                                   
     4      (1,1,5)               0.0000000      UZF04                                   
     5      (1,1,6)               0.0000000      UZF05                                   
     6      (1,1,7)               0.0000000      UZF06                                   
     7      (1,1,8)               0.0000000      UZF07                                   
     8      (1,1,9)               0.0000000      UZF08                                   
     9      (2,1,2)               0.0000000      UZF08                                   
     10     (2,1,3)               0.0000000      UZF10                                   
     11     (2,1,4)               0.0000000      UZF11                                   
     12     (2,1,5)               0.0000000      UZF12                                   
     13     (2,1,6)               0.0000000      UZF13                                   
     14     (2,1,7)               0.0000000      UZF14                                   
     15     (2,1,8)               0.0000000      UZF15                                   
     16     (2,1,9)               0.0000000      UZF16                                   
     17     (3,1,2)               0.0000000      UZF17                                   
     18     (3,1,3)               0.0000000      UZF18                                   
     19     (3,1,4)               0.0000000      UZF19                                   
     20     (3,1,5)               0.0000000      UZF20                                   
     21     (3,1,6)               0.0000000      UZF21                                   
     22     (3,1,7)               0.0000000      UZF22                                   
     23     (3,1,8)               0.0000000      UZF23                                   
     24     (3,1,9)               0.0000000      UZF24                                   
 ----------------------------------------------------------------------------------------




 UZF-GWD PACKAGE (UZF-1) FLOW RATES   PERIOD      5   STEP        3
 ----------------------------------------------------------------------------------------
   NUMBER   CELLID                    RATE       NAME                                    
 ----------------------------------------------------------------------------------------
     1      (1,1,2)               0.0000000      UZF01                                   
     2      (1,1,3)               0.0000000      UZF02                                   
     3      (1,1,4)               0.0000000      UZF03                                   
     4      (1,1,5)               0.0000000      UZF04                                   
     5      (1,1,6)               0.0000000      UZF05                                   
     6      (1,1,7)               0.0000000      UZF06                                   
     7      (1,1,8)               0.0000000      UZF07                                   
     8      (1,1,9)               0.0000000      UZF08                                   
     9      (2,1,2)               0.0000000      UZF08                                   
     10     (2,1,3)               0.0000000      UZF10                                   
     11     (2,1,4)               0.0000000      UZF11                                   
     12     (2,1,5)               0.0000000      UZF12                                   
     13     (2,1,6)               0.0000000      UZF13                                   
     14     (2,1,7)               0.0000000      UZF14                                   
     15     (2,1,8)               0.0000000      UZF15                                   
     16     (2,1,9)               0.0000000      UZF16                                   
     17     (3,1,2)               0.0000000      UZF17                                   
     18     (3,1,3)               0.0000000      UZF18                                   
     19     (3,1,4)               0.0000000      UZF19                                   
     20     (3,1,5)               0.0000000      UZF20                                   
     21     (3,1,6)               0.0000000      UZF21                                   
     22     (3,1,7)               0.0000000      UZF22                                   
     23     (3,1,8)               0.0000000      UZF23                                   
     24     (3,1,9)               0.0000000      UZF24                                   
 ----------------------------------------------------------------------------------------




 UZF-GWET PACKAGE (UZF-1) FLOW RATES   PERIOD      5   STEP        3
 ----------------------------------------------------------------------------------------
   NUMBER   CELLID                    RATE       NAME                                    
 ----------------------------------------------------------------------------------------
     1      (1,1,2)               0.0000000      UZF01                                   
     2      (1,1,3)               0.0000000      UZF02                                   
     3      (1,1,4)               0.0000000      UZF03                                   
     4      (1,1,5)               0.0000000      UZF04                                   
     5      (1,1,6)               0.0000000      UZF05                                   
     6      (1,1,7)               0.0000000      UZF06                                   
     7      (1,1,8)               0.0000000      UZF07                                   
     8      (1,1,9)               0.0000000      UZF08                                   
     9      (2,1,2)               0.0000000      UZF08                                   
     10     (2,1,3)               0.0000000      UZF10                                   
     11     (2,1,4)               0.0000000      UZF11                                   
     12     (2,1,5)               0.0000000      UZF12                                   
     13     (2,1,6)               0.0000000      UZF13                                   
     14     (2,1,7)               0.0000000      UZF14                                   
     15     (2,1,8)               0.0000000      UZF15                                   
     16     (2,1,9)               0.0000000      UZF16                                   
     17     (3,1,2)               0.0000000      UZF17                                   
     18     (3,1,3)               0.0000000      UZF18                                   
     19     (3,1,4)               0.0000000      UZF19                                   
     20     (3,1,5)               0.0000000      UZF20                                   
     21     (3,1,6)               0.0000000      UZF21                                   
     22     (3,1,7)               0.0000000      UZF22                                   
     23     (3,1,8)               0.0000000      UZF23                                   
     24     (3,1,9)               0.0000000      UZF24                                   
 ----------------------------------------------------------------------------------------




 UZF-1 PACKAGE - SUMMARY OF FLOWS FOR EACH CONTROL VOLUME   PERIOD      5   STEP        3
 ----------------------------------------------------------------------------------------------------------------------------------------------------
                                                                                                                                           PERCENT   
   NUMBER   CELLID                  INFLOW      OUTFLOW        GWF      INFILTRATION   REJ INF        UZET       STORAGE      IN - OUT    DIFFERENCE 
 ----------------------------------------------------------------------------------------------------------------------------------------------------
     1      (1,1,2)               0.0000      -1.1760       0.0000       0.0000       0.0000       0.0000       1.1760       2.33147E-14  1.98249E-12
     2      (1,1,3)               0.0000      -1.1760       0.0000       0.0000       0.0000       0.0000       1.1760       2.33147E-14  1.98249E-12
     3      (1,1,4)               0.0000      -1.1760       0.0000       0.0000       0.0000       0.0000       1.1760       2.33147E-14  1.98249E-12
     4      (1,1,5)               0.0000      -1.1760       0.0000       0.0000       0.0000       0.0000       1.1760       2.33147E-14  1.98249E-12
     5      (1,1,6)               0.0000      -1.1760       0.0000       0.0000       0.0000       0.0000       1.1760       2.33147E-14  1.98249E-12
     6      (1,1,7)               0.0000      -1.1760       0.0000       0.0000       0.0000       0.0000       1.1760       2.33147E-14  1.98249E-12
     7      (1,1,8)               0.0000      -1.1760       0.0000       0.0000       0.0000       0.0000       1.1760       2.33147E-14  1.98249E-12
     8      (1,1,9)               0.0000      -1.1760       0.0000       0.0000       0.0000       0.0000       1.1760       2.33147E-14  1.98249E-12
     9      (2,1,2)               1.1760      -33.940       0.0000       0.0000       0.0000      -6.78604E-02  32.832       1.73289E-05  5.09554E-05
     10     (2,1,3)               1.1760      -33.940       0.0000       0.0000       0.0000      -6.78604E-02  32.832       1.73289E-05  5.09554E-05
     11     (2,1,4)               1.1760      -33.940       0.0000       0.0000       0.0000      -6.78604E-02  32.832       1.73289E-05  5.09554E-05
     12     (2,1,5)               1.1760      -33.940       0.0000       0.0000       0.0000      -6.78604E-02  32.832       1.73289E-05  5.09554E-05
     13     (2,1,6)               1.1760      -33.940       0.0000       0.0000       0.0000      -6.78604E-02  32.832       1.73289E-05  5.09554E-05
     14     (2,1,7)               1.1760      -33.940       0.0000       0.0000       0.0000      -6.78604E-02  32.832       1.73289E-05  5.09554E-05
     15     (2,1,8)               1.1760      -33.940       0.0000       0.0000       0.0000      -6.78604E-02  32.832       1.73289E-05  5.09554E-05
     16     (2,1,9)               1.1760      -33.940       0.0000       0.0000       0.0000      -6.78604E-02  32.832       1.73289E-05  5.09554E-05
     17     (3,1,2)               33.940       0.0000       0.0000       0.0000       0.0000       0.0000      -33.940       2.13163E-14  6.28055E-14
     18     (3,1,3)               33.940       0.0000       0.0000       0.0000       0.0000       0.0000      -33.940       2.13163E-14  6.28055E-14
     19     (3,1,4)               33.940       0.0000       0.0000       0.0000       0.0000       0.0000      -33.940       2.13163E-14  6.28055E-14
     20     (3,1,5)               33.940       0.0000       0.0000       0.0000       0.0000       0.0000      -33.940       2.13163E-14  6.28055E-14
     21     (3,1,6)               33.940       0.0000       0.0000       0.0000       0.0000       0.0000      -33.940       2.13163E-14  6.28055E-14
     22     (3,1,7)               33.940       0.0000       0.0000       0.0000       0.0000       0.0000      -33.940       2.13163E-14  6.28055E-14
     23     (3,1,8)               33.940       0.0000       0.0000       0.0000       0.0000       0.0000      -33.940       2.13163E-14  6.28055E-14
     24     (3,1,9)               33.940       0.0000       0.0000       0.0000       0.0000       0.0000      -33.940       2.13163E-14  6.28055E-14
 ----------------------------------------------------------------------------------------------------------------------------------------------------


1
  HEAD IN LAYER   1 AT END OF TIME STEP   3 IN STRESS PERIOD    5
  ---------------------------------------------------------------------------

            1           2           3           4           5           6           7           8           9          10
 ........................................................................................................................
   1   -25.00      -25.00      -25.00      -25.00      -25.00      -25.00      -25.00      -25.00      -25.00      -25.00    
1
  HEAD IN LAYER   2 AT END OF TIME STEP   3 IN STRESS PERIOD    5
  ---------------------------------------------------------------------------

            1           2           3           4           5           6           7           8           9          10
 ........................................................................................................................
   1   -25.00      -25.00      -25.00      -25.00      -25.00      -25.00      -25.00      -25.00      -25.00      -25.00    
1
  HEAD IN LAYER   3 AT END OF TIME STEP   3 IN STRESS PERIOD    5
  ---------------------------------------------------------------------------

            1           2           3           4           5           6           7           8           9          10
 ........................................................................................................................
   1   -25.00      -25.00      -25.00      -25.00      -25.00      -25.00      -25.00      -25.00      -25.00      -25.00    

 HEAD WILL BE SAVED ON UNIT 1022 AT END OF TIME STEP    3, STRESS PERIOD    5


  UZF-1 BUDGET FOR ENTIRE MODEL AT END OF TIME STEP    3, STRESS PERIOD   5
  ------------------------------------------------------------------------------

     CUMULATIVE UZF-1      L**3       RATES FOR THIS TIME STEP      L**3/T
     ------------------                 ------------------------

           IN:                                      IN:
           ---                                      ---
                 GWF =           0.0000                   GWF =           0.0000
        INFILTRATION =      480000.0000          INFILTRATION =           0.0000
             REJ-INF =           0.0000               REJ-INF =           0.0000
                UZET =           0.0000                  UZET =           0.0000
             STORAGE =      300319.5467               STORAGE =         272.0641

            TOTAL IN =      780319.5467              TOTAL IN =         272.0641

          OUT:                                     OUT:
          ----                                     ----
                 GWF =           0.0000                   GWF =           0.0000
        INFILTRATION =           0.0000          INFILTRATION =           0.0000
             REJ-INF =           0.0000               REJ-INF =           0.0000
                UZET =         361.2931                  UZET =           0.5429
             STORAGE =      779901.1239               STORAGE =         271.5211

           TOTAL OUT =      780262.4170             TOTAL OUT =         272.0639

            IN - OUT =          57.1297              IN - OUT =       1.3863E-04

 PERCENT DISCREPANCY =           0.01     PERCENT DISCREPANCY =           0.00



  VOLUME BUDGET FOR ENTIRE MODEL AT END OF TIME STEP    3, STRESS PERIOD   5
  ---------------------------------------------------------------------------------------------------

     CUMULATIVE VOLUME      L**3       RATES FOR THIS TIME STEP      L**3/T          PACKAGE NAME    
     ------------------                 ------------------------                     ----------------

           IN:                                      IN:
           ---                                      ---
              STO-SS =           0.0000                STO-SS =           0.0000     STORAGE         
              STO-SY =           0.0000                STO-SY =           0.0000     STORAGE         
                 CHD =           0.0000                   CHD =           0.0000     CHD-1           
           UZF-GWRCH =           0.0000             UZF-GWRCH =           0.0000     UZF-1           
             UZF-GWD =           0.0000               UZF-GWD =           0.0000     UZF-1           
            UZF-GWET =           0.0000              UZF-GWET =           0.0000     UZF-1           

            TOTAL IN =           0.0000              TOTAL IN =           0.0000

          OUT:                                     OUT:
          ----                                     ----
              STO-SS =           0.0000                STO-SS =           0.0000     STORAGE         
              STO-SY =           0.0000                STO-SY =           0.0000     STORAGE         
                 CHD =           0.0000                   CHD =           0.0000     CHD-1           
           UZF-GWRCH =           0.0000             UZF-GWRCH =           0.0000     UZF-1           
             UZF-GWD =           0.0000               UZF-GWD =           0.0000     UZF-1           
            UZF-GWET =           0.0000              UZF-GWET =           0.0000     UZF-1           

           TOTAL OUT =           0.0000             TOTAL OUT =           0.0000

            IN - OUT =           0.0000              IN - OUT =           0.0000

 PERCENT DISCREPANCY =           0.00     PERCENT DISCREPANCY =           0.00




         TIME SUMMARY AT END OF TIME STEP    3 IN STRESS PERIOD    5
                    SECONDS     MINUTES      HOURS       DAYS        YEARS
                    -----------------------------------------------------------
   TIME STEP LENGTH 3.45600E+06  57600.      960.00      40.000     0.10951    
 STRESS PERIOD TIME 1.03680E+07 1.72800E+05  2880.0      120.00     0.32854    
         TOTAL TIME 5.87520E+07 9.79200E+05  16320.      680.00      1.8617    


end timestep


start timestep kper="5" kstp="4" mode="normal"

 UBDSV1 SAVING     FLOW-JA-FACE ON UNIT   1020 AT TIME STEP      4, STRESS PERIOD      5
 UBDSV06 SAVING     FLOW-JA-FACE IN MODEL GWF_1            PACKAGE UZF-1           CONNECTED TO MODEL GWF_1            PACKAGE UZF-1            ON UNIT   1014 AT TIME STEP      4, STRESS PERIOD      5
 UBDSV06 SAVING              GWF IN MODEL GWF_1            PACKAGE UZF-1           CONNECTED TO MODEL GWF_1            PACKAGE GWF_1            ON UNIT   1014 AT TIME STEP      4, STRESS PERIOD      5
 UBDSV06 SAVING     INFILTRATION IN MODEL GWF_1            PACKAGE UZF-1           CONNECTED TO MODEL GWF_1            PACKAGE UZF-1            ON UNIT   1014 AT TIME STEP      4, STRESS PERIOD      5
 UBDSV06 SAVING          REJ-INF IN MODEL GWF_1            PACKAGE UZF-1           CONNECTED TO MODEL GWF_1            PACKAGE UZF-1            ON UNIT   1014 AT TIME STEP      4, STRESS PERIOD      5
 UBDSV06 SAVING             UZET IN MODEL GWF_1            PACKAGE UZF-1           CONNECTED TO MODEL GWF_1            PACKAGE UZF-1            ON UNIT   1014 AT TIME STEP      4, STRESS PERIOD      5
 UBDSV06 SAVING          STORAGE IN MODEL GWF_1            PACKAGE UZF-1           CONNECTED TO MODEL GWF_1            PACKAGE UZF-1            ON UNIT   1014 AT TIME STEP      4, STRESS PERIOD      5

 CHD PACKAGE (CHD-1) FLOW RATES   PERIOD      5   STEP        4
 -----------------------------------------------
   NUMBER   CELLID                    RATE      
 -----------------------------------------------
     1      (3,1,1)               0.0000000     
     2      (3,1,10)              0.0000000     
 -----------------------------------------------




 UZF-GWRCH PACKAGE (UZF-1) FLOW RATES   PERIOD      5   STEP        4
 ----------------------------------------------------------------------------------------
   NUMBER   CELLID                    RATE       NAME                                    
 ----------------------------------------------------------------------------------------
     1      (1,1,2)               0.0000000      UZF01                                   
     2      (1,1,3)               0.0000000      UZF02                                   
     3      (1,1,4)               0.0000000      UZF03                                   
     4      (1,1,5)               0.0000000      UZF04                                   
     5      (1,1,6)               0.0000000      UZF05                                   
     6      (1,1,7)               0.0000000      UZF06                                   
     7      (1,1,8)               0.0000000      UZF07                                   
     8      (1,1,9)               0.0000000      UZF08                                   
     9      (2,1,2)               0.0000000      UZF08                                   
     10     (2,1,3)               0.0000000      UZF10                                   
     11     (2,1,4)               0.0000000      UZF11                                   
     12     (2,1,5)               0.0000000      UZF12                                   
     13     (2,1,6)               0.0000000      UZF13                                   
     14     (2,1,7)               0.0000000      UZF14                                   
     15     (2,1,8)               0.0000000      UZF15                                   
     16     (2,1,9)               0.0000000      UZF16                                   
     17     (3,1,2)               0.0000000      UZF17                                   
     18     (3,1,3)               0.0000000      UZF18                                   
     19     (3,1,4)               0.0000000      UZF19                                   
     20     (3,1,5)               0.0000000      UZF20                                   
     21     (3,1,6)               0.0000000      UZF21                                   
     22     (3,1,7)               0.0000000      UZF22                                   
     23     (3,1,8)               0.0000000      UZF23                                   
     24     (3,1,9)               0.0000000      UZF24                                   
 ----------------------------------------------------------------------------------------




 UZF-GWD PACKAGE (UZF-1) FLOW RATES   PERIOD      5   STEP        4
 ----------------------------------------------------------------------------------------
   NUMBER   CELLID                    RATE       NAME                                    
 ----------------------------------------------------------------------------------------
     1      (1,1,2)               0.0000000      UZF01                                   
     2      (1,1,3)               0.0000000      UZF02                                   
     3      (1,1,4)               0.0000000      UZF03                                   
     4      (1,1,5)               0.0000000      UZF04                                   
     5      (1,1,6)               0.0000000      UZF05                                   
     6      (1,1,7)               0.0000000      UZF06                                   
     7      (1,1,8)               0.0000000      UZF07                                   
     8      (1,1,9)               0.0000000      UZF08                                   
     9      (2,1,2)               0.0000000      UZF08                                   
     10     (2,1,3)               0.0000000      UZF10                                   
     11     (2,1,4)               0.0000000      UZF11                                   
     12     (2,1,5)               0.0000000      UZF12                                   
     13     (2,1,6)               0.0000000      UZF13                                   
     14     (2,1,7)               0.0000000      UZF14                                   
     15     (2,1,8)               0.0000000      UZF15                                   
     16     (2,1,9)               0.0000000      UZF16                                   
     17     (3,1,2)               0.0000000      UZF17                                   
     18     (3,1,3)               0.0000000      UZF18                                   
     19     (3,1,4)               0.0000000      UZF19                                   
     20     (3,1,5)               0.0000000      UZF20                                   
     21     (3,1,6)               0.0000000      UZF21                                   
     22     (3,1,7)               0.0000000      UZF22                                   
     23     (3,1,8)               0.0000000      UZF23                                   
     24     (3,1,9)               0.0000000      UZF24                                   
 ----------------------------------------------------------------------------------------




 UZF-GWET PACKAGE (UZF-1) FLOW RATES   PERIOD      5   STEP        4
 ----------------------------------------------------------------------------------------
   NUMBER   CELLID                    RATE       NAME                                    
 ----------------------------------------------------------------------------------------
     1      (1,1,2)               0.0000000      UZF01                                   
     2      (1,1,3)               0.0000000      UZF02                                   
     3      (1,1,4)               0.0000000      UZF03                                   
     4      (1,1,5)               0.0000000      UZF04                                   
     5      (1,1,6)               0.0000000      UZF05                                   
     6      (1,1,7)               0.0000000      UZF06                                   
     7      (1,1,8)               0.0000000      UZF07                                   
     8      (1,1,9)               0.0000000      UZF08                                   
     9      (2,1,2)               0.0000000      UZF08                                   
     10     (2,1,3)               0.0000000      UZF10                                   
     11     (2,1,4)               0.0000000      UZF11                                   
     12     (2,1,5)               0.0000000      UZF12                                   
     13     (2,1,6)               0.0000000      UZF13                                   
     14     (2,1,7)               0.0000000      UZF14                                   
     15     (2,1,8)               0.0000000      UZF15                                   
     16     (2,1,9)               0.0000000      UZF16                                   
     17     (3,1,2)               0.0000000      UZF17                                   
     18     (3,1,3)               0.0000000      UZF18                                   
     19     (3,1,4)               0.0000000      UZF19                                   
     20     (3,1,5)               0.0000000      UZF20                                   
     21     (3,1,6)               0.0000000      UZF21                                   
     22     (3,1,7)               0.0000000      UZF22                                   
     23     (3,1,8)               0.0000000      UZF23                                   
     24     (3,1,9)               0.0000000      UZF24                                   
 ----------------------------------------------------------------------------------------




 UZF-1 PACKAGE - SUMMARY OF FLOWS FOR EACH CONTROL VOLUME   PERIOD      5   STEP        4
 ----------------------------------------------------------------------------------------------------------------------------------------------------
                                                                                                                                           PERCENT   
   NUMBER   CELLID                  INFLOW      OUTFLOW        GWF      INFILTRATION   REJ INF        UZET       STORAGE      IN - OUT    DIFFERENCE 
 ----------------------------------------------------------------------------------------------------------------------------------------------------
     1      (1,1,2)               0.0000      -1.1760       0.0000       0.0000       0.0000       0.0000       1.1760       2.33147E-14  1.98249E-12
     2      (1,1,3)               0.0000      -1.1760       0.0000       0.0000       0.0000       0.0000       1.1760       2.33147E-14  1.98249E-12
     3      (1,1,4)               0.0000      -1.1760       0.0000       0.0000       0.0000       0.0000       1.1760       2.33147E-14  1.98249E-12
     4      (1,1,5)               0.0000      -1.1760       0.0000       0.0000       0.0000       0.0000       1.1760       2.33147E-14  1.98249E-12
     5      (1,1,6)               0.0000      -1.1760       0.0000       0.0000       0.0000       0.0000       1.1760       2.33147E-14  1.98249E-12
     6      (1,1,7)               0.0000      -1.1760       0.0000       0.0000       0.0000       0.0000       1.1760       2.33147E-14  1.98249E-12
     7      (1,1,8)               0.0000      -1.1760       0.0000       0.0000       0.0000       0.0000       1.1760       2.33147E-14  1.98249E-12
     8      (1,1,9)               0.0000      -1.1760       0.0000       0.0000       0.0000       0.0000       1.1760       2.33147E-14  1.98249E-12
     9      (2,1,2)               1.1760      -30.363       0.0000       0.0000       0.0000      -6.67905E-02  29.253       3.39665E-05  1.11624E-04
     10     (2,1,3)               1.1760      -30.363       0.0000       0.0000       0.0000      -6.67905E-02  29.253       3.39665E-05  1.11624E-04
     11     (2,1,4)               1.1760      -30.363       0.0000       0.0000       0.0000      -6.67905E-02  29.253       3.39665E-05  1.11624E-04
     12     (2,1,5)               1.1760      -30.363       0.0000       0.0000       0.0000      -6.67905E-02  29.253       3.39665E-05  1.11624E-04
     13     (2,1,6)               1.1760      -30.363       0.0000       0.0000       0.0000      -6.67905E-02  29.253       3.39665E-05  1.11624E-04
     14     (2,1,7)               1.1760      -30.363       0.0000       0.0000       0.0000      -6.67905E-02  29.253       3.39665E-05  1.11624E-04
     15     (2,1,8)               1.1760      -30.363       0.0000       0.0000       0.0000      -6.67905E-02  29.253       3.39665E-05  1.11624E-04
     16     (2,1,9)               1.1760      -30.363       0.0000       0.0000       0.0000      -6.67905E-02  29.253       3.39665E-05  1.11624E-04
     17     (3,1,2)               30.363       0.0000       0.0000       0.0000       0.0000       0.0000      -30.363       3.08052E-06  1.01458E-05
     18     (3,1,3)               30.363       0.0000       0.0000       0.0000       0.0000       0.0000      -30.363       3.08052E-06  1.01458E-05
     19     (3,1,4)               30.363       0.0000       0.0000       0.0000       0.0000       0.0000      -30.363       3.08052E-06  1.01458E-05
     20     (3,1,5)               30.363       0.0000       0.0000       0.0000       0.0000       0.0000      -30.363       3.08052E-06  1.01458E-05
     21     (3,1,6)               30.363       0.0000       0.0000       0.0000       0.0000       0.0000      -30.363       3.08052E-06  1.01458E-05
     22     (3,1,7)               30.363       0.0000       0.0000       0.0000       0.0000       0.0000      -30.363       3.08052E-06  1.01458E-05
     23     (3,1,8)               30.363       0.0000       0.0000       0.0000       0.0000       0.0000      -30.363       3.08052E-06  1.01458E-05
     24     (3,1,9)               30.363       0.0000       0.0000       0.0000       0.0000       0.0000      -30.363       3.08052E-06  1.01458E-05
 ----------------------------------------------------------------------------------------------------------------------------------------------------


1
  HEAD IN LAYER   1 AT END OF TIME STEP   4 IN STRESS PERIOD    5
  ---------------------------------------------------------------------------

            1           2           3           4           5           6           7           8           9          10
 ........................................................................................................................
   1   -25.00      -25.00      -25.00      -25.00      -25.00      -25.00      -25.00      -25.00      -25.00      -25.00    
1
  HEAD IN LAYER   2 AT END OF TIME STEP   4 IN STRESS PERIOD    5
  ---------------------------------------------------------------------------

            1           2           3           4           5           6           7           8           9          10
 ........................................................................................................................
   1   -25.00      -25.00      -25.00      -25.00      -25.00      -25.00      -25.00      -25.00      -25.00      -25.00    
1
  HEAD IN LAYER   3 AT END OF TIME STEP   4 IN STRESS PERIOD    5
  ---------------------------------------------------------------------------

            1           2           3           4           5           6           7           8           9          10
 ........................................................................................................................
   1   -25.00      -25.00      -25.00      -25.00      -25.00      -25.00      -25.00      -25.00      -25.00      -25.00    

 HEAD WILL BE SAVED ON UNIT 1022 AT END OF TIME STEP    4, STRESS PERIOD    5


  UZF-1 BUDGET FOR ENTIRE MODEL AT END OF TIME STEP    4, STRESS PERIOD   5
  ------------------------------------------------------------------------------

     CUMULATIVE UZF-1      L**3       RATES FOR THIS TIME STEP      L**3/T
     ------------------                 ------------------------

           IN:                                      IN:
           ---                                      ---
                 GWF =           0.0000                   GWF =           0.0000
        INFILTRATION =      480000.0000          INFILTRATION =           0.0000
             REJ-INF =           0.0000               REJ-INF =           0.0000
                UZET =           0.0000                  UZET =           0.0000
             STORAGE =      310056.9488               STORAGE =         243.4351

            TOTAL IN =      790056.9488              TOTAL IN =         243.4351

          OUT:                                     OUT:
          ----                                     ----
                 GWF =           0.0000                   GWF =           0.0000
        INFILTRATION =           0.0000          INFILTRATION =           0.0000
             REJ-INF =           0.0000               REJ-INF =           0.0000
                UZET =         382.6661                  UZET =           0.5343
             STORAGE =      789617.1411               STORAGE =         242.9004

           TOTAL OUT =      789999.8072             TOTAL OUT =         243.4348

            IN - OUT =          57.1416              IN - OUT =       2.9638E-04

 PERCENT DISCREPANCY =           0.01     PERCENT DISCREPANCY =           0.00



  VOLUME BUDGET FOR ENTIRE MODEL AT END OF TIME STEP    4, STRESS PERIOD   5
  ---------------------------------------------------------------------------------------------------

     CUMULATIVE VOLUME      L**3       RATES FOR THIS TIME STEP      L**3/T          PACKAGE NAME    
     ------------------                 ------------------------                     ----------------

           IN:                                      IN:
           ---                                      ---
              STO-SS =           0.0000                STO-SS =           0.0000     STORAGE         
              STO-SY =           0.0000                STO-SY =           0.0000     STORAGE         
                 CHD =           0.0000                   CHD =           0.0000     CHD-1           
           UZF-GWRCH =           0.0000             UZF-GWRCH =           0.0000     UZF-1           
             UZF-GWD =           0.0000               UZF-GWD =           0.0000     UZF-1           
            UZF-GWET =           0.0000              UZF-GWET =           0.0000     UZF-1           

            TOTAL IN =           0.0000              TOTAL IN =           0.0000

          OUT:                                     OUT:
          ----                                     ----
              STO-SS =           0.0000                STO-SS =           0.0000     STORAGE         
              STO-SY =           0.0000                STO-SY =           0.0000     STORAGE         
                 CHD =           0.0000                   CHD =           0.0000     CHD-1           
           UZF-GWRCH =           0.0000             UZF-GWRCH =           0.0000     UZF-1           
             UZF-GWD =           0.0000               UZF-GWD =           0.0000     UZF-1           
            UZF-GWET =           0.0000              UZF-GWET =           0.0000     UZF-1           

           TOTAL OUT =           0.0000             TOTAL OUT =           0.0000

            IN - OUT =           0.0000              IN - OUT =           0.0000

 PERCENT DISCREPANCY =           0.00     PERCENT DISCREPANCY =           0.00




         TIME SUMMARY AT END OF TIME STEP    4 IN STRESS PERIOD    5
                    SECONDS     MINUTES      HOURS       DAYS        YEARS
                    -----------------------------------------------------------
   TIME STEP LENGTH 3.45600E+06  57600.      960.00      40.000     0.10951    
 STRESS PERIOD TIME 1.38240E+07 2.30400E+05  3840.0      160.00     0.43806    
         TOTAL TIME 6.22080E+07 1.03680E+06  17280.      720.00      1.9713    


end timestep


start timestep kper="5" kstp="5" mode="normal"

 UBDSV1 SAVING     FLOW-JA-FACE ON UNIT   1020 AT TIME STEP      5, STRESS PERIOD      5
 UBDSV06 SAVING     FLOW-JA-FACE IN MODEL GWF_1            PACKAGE UZF-1           CONNECTED TO MODEL GWF_1            PACKAGE UZF-1            ON UNIT   1014 AT TIME STEP      5, STRESS PERIOD      5
 UBDSV06 SAVING              GWF IN MODEL GWF_1            PACKAGE UZF-1           CONNECTED TO MODEL GWF_1            PACKAGE GWF_1            ON UNIT   1014 AT TIME STEP      5, STRESS PERIOD      5
 UBDSV06 SAVING     INFILTRATION IN MODEL GWF_1            PACKAGE UZF-1           CONNECTED TO MODEL GWF_1            PACKAGE UZF-1            ON UNIT   1014 AT TIME STEP      5, STRESS PERIOD      5
 UBDSV06 SAVING          REJ-INF IN MODEL GWF_1            PACKAGE UZF-1           CONNECTED TO MODEL GWF_1            PACKAGE UZF-1            ON UNIT   1014 AT TIME STEP      5, STRESS PERIOD      5
 UBDSV06 SAVING             UZET IN MODEL GWF_1            PACKAGE UZF-1           CONNECTED TO MODEL GWF_1            PACKAGE UZF-1            ON UNIT   1014 AT TIME STEP      5, STRESS PERIOD      5
 UBDSV06 SAVING          STORAGE IN MODEL GWF_1            PACKAGE UZF-1           CONNECTED TO MODEL GWF_1            PACKAGE UZF-1            ON UNIT   1014 AT TIME STEP      5, STRESS PERIOD      5

 CHD PACKAGE (CHD-1) FLOW RATES   PERIOD      5   STEP        5
 -----------------------------------------------
   NUMBER   CELLID                    RATE      
 -----------------------------------------------
     1      (3,1,1)               0.0000000     
     2      (3,1,10)              0.0000000     
 -----------------------------------------------




 UZF-GWRCH PACKAGE (UZF-1) FLOW RATES   PERIOD      5   STEP        5
 ----------------------------------------------------------------------------------------
   NUMBER   CELLID                    RATE       NAME                                    
 ----------------------------------------------------------------------------------------
     1      (1,1,2)               0.0000000      UZF01                                   
     2      (1,1,3)               0.0000000      UZF02                                   
     3      (1,1,4)               0.0000000      UZF03                                   
     4      (1,1,5)               0.0000000      UZF04                                   
     5      (1,1,6)               0.0000000      UZF05                                   
     6      (1,1,7)               0.0000000      UZF06                                   
     7      (1,1,8)               0.0000000      UZF07                                   
     8      (1,1,9)               0.0000000      UZF08                                   
     9      (2,1,2)               0.0000000      UZF08                                   
     10     (2,1,3)               0.0000000      UZF10                                   
     11     (2,1,4)               0.0000000      UZF11                                   
     12     (2,1,5)               0.0000000      UZF12                                   
     13     (2,1,6)               0.0000000      UZF13                                   
     14     (2,1,7)               0.0000000      UZF14                                   
     15     (2,1,8)               0.0000000      UZF15                                   
     16     (2,1,9)               0.0000000      UZF16                                   
     17     (3,1,2)               0.0000000      UZF17                                   
     18     (3,1,3)               0.0000000      UZF18                                   
     19     (3,1,4)               0.0000000      UZF19                                   
     20     (3,1,5)               0.0000000      UZF20                                   
     21     (3,1,6)               0.0000000      UZF21                                   
     22     (3,1,7)               0.0000000      UZF22                                   
     23     (3,1,8)               0.0000000      UZF23                                   
     24     (3,1,9)               0.0000000      UZF24                                   
 ----------------------------------------------------------------------------------------




 UZF-GWD PACKAGE (UZF-1) FLOW RATES   PERIOD      5   STEP        5
 ----------------------------------------------------------------------------------------
   NUMBER   CELLID                    RATE       NAME                                    
 ----------------------------------------------------------------------------------------
     1      (1,1,2)               0.0000000      UZF01                                   
     2      (1,1,3)               0.0000000      UZF02                                   
     3      (1,1,4)               0.0000000      UZF03                                   
     4      (1,1,5)               0.0000000      UZF04                                   
     5      (1,1,6)               0.0000000      UZF05                                   
     6      (1,1,7)               0.0000000      UZF06                                   
     7      (1,1,8)               0.0000000      UZF07                                   
     8      (1,1,9)               0.0000000      UZF08                                   
     9      (2,1,2)               0.0000000      UZF08                                   
     10     (2,1,3)               0.0000000      UZF10                                   
     11     (2,1,4)               0.0000000      UZF11                                   
     12     (2,1,5)               0.0000000      UZF12                                   
     13     (2,1,6)               0.0000000      UZF13                                   
     14     (2,1,7)               0.0000000      UZF14                                   
     15     (2,1,8)               0.0000000      UZF15                                   
     16     (2,1,9)               0.0000000      UZF16                                   
     17     (3,1,2)               0.0000000      UZF17                                   
     18     (3,1,3)               0.0000000      UZF18                                   
     19     (3,1,4)               0.0000000      UZF19                                   
     20     (3,1,5)               0.0000000      UZF20                                   
     21     (3,1,6)               0.0000000      UZF21                                   
     22     (3,1,7)               0.0000000      UZF22                                   
     23     (3,1,8)               0.0000000      UZF23                                   
     24     (3,1,9)               0.0000000      UZF24                                   
 ----------------------------------------------------------------------------------------




 UZF-GWET PACKAGE (UZF-1) FLOW RATES   PERIOD      5   STEP        5
 ----------------------------------------------------------------------------------------
   NUMBER   CELLID                    RATE       NAME                                    
 ----------------------------------------------------------------------------------------
     1      (1,1,2)               0.0000000      UZF01                                   
     2      (1,1,3)               0.0000000      UZF02                                   
     3      (1,1,4)               0.0000000      UZF03                                   
     4      (1,1,5)               0.0000000      UZF04                                   
     5      (1,1,6)               0.0000000      UZF05                                   
     6      (1,1,7)               0.0000000      UZF06                                   
     7      (1,1,8)               0.0000000      UZF07                                   
     8      (1,1,9)               0.0000000      UZF08                                   
     9      (2,1,2)               0.0000000      UZF08                                   
     10     (2,1,3)               0.0000000      UZF10                                   
     11     (2,1,4)               0.0000000      UZF11                                   
     12     (2,1,5)               0.0000000      UZF12                                   
     13     (2,1,6)               0.0000000      UZF13                                   
     14     (2,1,7)               0.0000000      UZF14                                   
     15     (2,1,8)               0.0000000      UZF15                                   
     16     (2,1,9)               0.0000000      UZF16                                   
     17     (3,1,2)               0.0000000      UZF17                                   
     18     (3,1,3)               0.0000000      UZF18                                   
     19     (3,1,4)               0.0000000      UZF19                                   
     20     (3,1,5)               0.0000000      UZF20                                   
     21     (3,1,6)               0.0000000      UZF21                                   
     22     (3,1,7)               0.0000000      UZF22                                   
     23     (3,1,8)               0.0000000      UZF23                                   
     24     (3,1,9)               0.0000000      UZF24                                   
 ----------------------------------------------------------------------------------------




 UZF-1 PACKAGE - SUMMARY OF FLOWS FOR EACH CONTROL VOLUME   PERIOD      5   STEP        5
 ----------------------------------------------------------------------------------------------------------------------------------------------------
                                                                                                                                           PERCENT   
   NUMBER   CELLID                  INFLOW      OUTFLOW        GWF      INFILTRATION   REJ INF        UZET       STORAGE      IN - OUT    DIFFERENCE 
 ----------------------------------------------------------------------------------------------------------------------------------------------------
     1      (1,1,2)               0.0000      -1.1760       0.0000       0.0000       0.0000       0.0000       1.1760      -1.50324E-13 -1.27824E-11
     2      (1,1,3)               0.0000      -1.1760       0.0000       0.0000       0.0000       0.0000       1.1760      -1.50324E-13 -1.27824E-11
     3      (1,1,4)               0.0000      -1.1760       0.0000       0.0000       0.0000       0.0000       1.1760      -1.50324E-13 -1.27824E-11
     4      (1,1,5)               0.0000      -1.1760       0.0000       0.0000       0.0000       0.0000       1.1760      -1.50324E-13 -1.27824E-11
     5      (1,1,6)               0.0000      -1.1760       0.0000       0.0000       0.0000       0.0000       1.1760      -1.50324E-13 -1.27824E-11
     6      (1,1,7)               0.0000      -1.1760       0.0000       0.0000       0.0000       0.0000       1.1760      -1.50324E-13 -1.27824E-11
     7      (1,1,8)               0.0000      -1.1760       0.0000       0.0000       0.0000       0.0000       1.1760      -1.50324E-13 -1.27824E-11
     8      (1,1,9)               0.0000      -1.1760       0.0000       0.0000       0.0000       0.0000       1.1760      -1.50324E-13 -1.27824E-11
     9      (2,1,2)               1.1760      -27.989       0.0000       0.0000       0.0000      -6.57207E-02  26.879       5.01708E-05  1.78833E-04
     10     (2,1,3)               1.1760      -27.989       0.0000       0.0000       0.0000      -6.57207E-02  26.879       5.01708E-05  1.78833E-04
     11     (2,1,4)               1.1760      -27.989       0.0000       0.0000       0.0000      -6.57207E-02  26.879       5.01708E-05  1.78833E-04
     12     (2,1,5)               1.1760      -27.989       0.0000       0.0000       0.0000      -6.57207E-02  26.879       5.01708E-05  1.78833E-04
     13     (2,1,6)               1.1760      -27.989       0.0000       0.0000       0.0000      -6.57207E-02  26.879       5.01708E-05  1.78833E-04
     14     (2,1,7)               1.1760      -27.989       0.0000       0.0000       0.0000      -6.57207E-02  26.879       5.01708E-05  1.78833E-04
     15     (2,1,8)               1.1760      -27.989       0.0000       0.0000       0.0000      -6.57207E-02  26.879       5.01708E-05  1.78833E-04
     16     (2,1,9)               1.1760      -27.989       0.0000       0.0000       0.0000      -6.57207E-02  26.879       5.01708E-05  1.78833E-04
     17     (3,1,2)               27.989       0.0000       0.0000       0.0000       0.0000       0.0000      -27.989       2.89496E-06  1.03433E-05
     18     (3,1,3)               27.989       0.0000       0.0000       0.0000       0.0000       0.0000      -27.989       2.89496E-06  1.03433E-05
     19     (3,1,4)               27.989       0.0000       0.0000       0.0000       0.0000       0.0000      -27.989       2.89496E-06  1.03433E-05
     20     (3,1,5)               27.989       0.0000       0.0000       0.0000       0.0000       0.0000      -27.989       2.89496E-06  1.03433E-05
     21     (3,1,6)               27.989       0.0000       0.0000       0.0000       0.0000       0.0000      -27.989       2.89496E-06  1.03433E-05
     22     (3,1,7)               27.989       0.0000       0.0000       0.0000       0.0000       0.0000      -27.989       2.89496E-06  1.03433E-05
     23     (3,1,8)               27.989       0.0000       0.0000       0.0000       0.0000       0.0000      -27.989       2.89496E-06  1.03433E-05
     24     (3,1,9)               27.989       0.0000       0.0000       0.0000       0.0000       0.0000      -27.989       2.89496E-06  1.03433E-05
 ----------------------------------------------------------------------------------------------------------------------------------------------------


1
  HEAD IN LAYER   1 AT END OF TIME STEP   5 IN STRESS PERIOD    5
  ---------------------------------------------------------------------------

            1           2           3           4           5           6           7           8           9          10
 ........................................................................................................................
   1   -25.00      -25.00      -25.00      -25.00      -25.00      -25.00      -25.00      -25.00      -25.00      -25.00    
1
  HEAD IN LAYER   2 AT END OF TIME STEP   5 IN STRESS PERIOD    5
  ---------------------------------------------------------------------------

            1           2           3           4           5           6           7           8           9          10
 ........................................................................................................................
   1   -25.00      -25.00      -25.00      -25.00      -25.00      -25.00      -25.00      -25.00      -25.00      -25.00    
1
  HEAD IN LAYER   3 AT END OF TIME STEP   5 IN STRESS PERIOD    5
  ---------------------------------------------------------------------------

            1           2           3           4           5           6           7           8           9          10
 ........................................................................................................................
   1   -25.00      -25.00      -25.00      -25.00      -25.00      -25.00      -25.00      -25.00      -25.00      -25.00    

 HEAD WILL BE SAVED ON UNIT 1022 AT END OF TIME STEP    5, STRESS PERIOD    5


  UZF-1 BUDGET FOR ENTIRE MODEL AT END OF TIME STEP    5, STRESS PERIOD   5
  ------------------------------------------------------------------------------

     CUMULATIVE UZF-1      L**3       RATES FOR THIS TIME STEP      L**3/T
     ------------------                 ------------------------

           IN:                                      IN:
           ---                                      ---
                 GWF =           0.0000                   GWF =           0.0000
        INFILTRATION =      480000.0000          INFILTRATION =           0.0000
             REJ-INF =           0.0000               REJ-INF =           0.0000
                UZET =           0.0000                  UZET =           0.0000
             STORAGE =      319034.4040               STORAGE =         224.4364

            TOTAL IN =      799034.4040              TOTAL IN =         224.4364

          OUT:                                     OUT:
          ----                                     ----
                 GWF =           0.0000                   GWF =           0.0000
        INFILTRATION =           0.0000          INFILTRATION =           0.0000
             REJ-INF =           0.0000               REJ-INF =           0.0000
                UZET =         403.6967                  UZET =           0.5258
             STORAGE =      798573.5487               STORAGE =         223.9102

           TOTAL OUT =      798977.2455             TOTAL OUT =         224.4360

            IN - OUT =          57.1585              IN - OUT =       4.2453E-04

 PERCENT DISCREPANCY =           0.01     PERCENT DISCREPANCY =           0.00



  VOLUME BUDGET FOR ENTIRE MODEL AT END OF TIME STEP    5, STRESS PERIOD   5
  ---------------------------------------------------------------------------------------------------

     CUMULATIVE VOLUME      L**3       RATES FOR THIS TIME STEP      L**3/T          PACKAGE NAME    
     ------------------                 ------------------------                     ----------------

           IN:                                      IN:
           ---                                      ---
              STO-SS =           0.0000                STO-SS =           0.0000     STORAGE         
              STO-SY =           0.0000                STO-SY =           0.0000     STORAGE         
                 CHD =           0.0000                   CHD =           0.0000     CHD-1           
           UZF-GWRCH =           0.0000             UZF-GWRCH =           0.0000     UZF-1           
             UZF-GWD =           0.0000               UZF-GWD =           0.0000     UZF-1           
            UZF-GWET =           0.0000              UZF-GWET =           0.0000     UZF-1           

            TOTAL IN =           0.0000              TOTAL IN =           0.0000

          OUT:                                     OUT:
          ----                                     ----
              STO-SS =           0.0000                STO-SS =           0.0000     STORAGE         
              STO-SY =           0.0000                STO-SY =           0.0000     STORAGE         
                 CHD =           0.0000                   CHD =           0.0000     CHD-1           
           UZF-GWRCH =           0.0000             UZF-GWRCH =           0.0000     UZF-1           
             UZF-GWD =           0.0000               UZF-GWD =           0.0000     UZF-1           
            UZF-GWET =           0.0000              UZF-GWET =           0.0000     UZF-1           

           TOTAL OUT =           0.0000             TOTAL OUT =           0.0000

            IN - OUT =           0.0000              IN - OUT =           0.0000

 PERCENT DISCREPANCY =           0.00     PERCENT DISCREPANCY =           0.00




         TIME SUMMARY AT END OF TIME STEP    5 IN STRESS PERIOD    5
                    SECONDS     MINUTES      HOURS       DAYS        YEARS
                    -----------------------------------------------------------
   TIME STEP LENGTH 3.45600E+06  57600.      960.00      40.000     0.10951    
 STRESS PERIOD TIME 1.72800E+07 2.88000E+05  4800.0      200.00     0.54757    
         TOTAL TIME 6.56640E+07 1.09440E+06  18240.      760.00      2.0808    


end timestep


start timestep kper="5" kstp="6" mode="normal"

 UBDSV1 SAVING     FLOW-JA-FACE ON UNIT   1020 AT TIME STEP      6, STRESS PERIOD      5
 UBDSV06 SAVING     FLOW-JA-FACE IN MODEL GWF_1            PACKAGE UZF-1           CONNECTED TO MODEL GWF_1            PACKAGE UZF-1            ON UNIT   1014 AT TIME STEP      6, STRESS PERIOD      5
 UBDSV06 SAVING              GWF IN MODEL GWF_1            PACKAGE UZF-1           CONNECTED TO MODEL GWF_1            PACKAGE GWF_1            ON UNIT   1014 AT TIME STEP      6, STRESS PERIOD      5
 UBDSV06 SAVING     INFILTRATION IN MODEL GWF_1            PACKAGE UZF-1           CONNECTED TO MODEL GWF_1            PACKAGE UZF-1            ON UNIT   1014 AT TIME STEP      6, STRESS PERIOD      5
 UBDSV06 SAVING          REJ-INF IN MODEL GWF_1            PACKAGE UZF-1           CONNECTED TO MODEL GWF_1            PACKAGE UZF-1            ON UNIT   1014 AT TIME STEP      6, STRESS PERIOD      5
 UBDSV06 SAVING             UZET IN MODEL GWF_1            PACKAGE UZF-1           CONNECTED TO MODEL GWF_1            PACKAGE UZF-1            ON UNIT   1014 AT TIME STEP      6, STRESS PERIOD      5
 UBDSV06 SAVING          STORAGE IN MODEL GWF_1            PACKAGE UZF-1           CONNECTED TO MODEL GWF_1            PACKAGE UZF-1            ON UNIT   1014 AT TIME STEP      6, STRESS PERIOD      5

 CHD PACKAGE (CHD-1) FLOW RATES   PERIOD      5   STEP        6
 -----------------------------------------------
   NUMBER   CELLID                    RATE      
 -----------------------------------------------
     1      (3,1,1)               0.0000000     
     2      (3,1,10)              0.0000000     
 -----------------------------------------------




 UZF-GWRCH PACKAGE (UZF-1) FLOW RATES   PERIOD      5   STEP        6
 ----------------------------------------------------------------------------------------
   NUMBER   CELLID                    RATE       NAME                                    
 ----------------------------------------------------------------------------------------
     1      (1,1,2)               0.0000000      UZF01                                   
     2      (1,1,3)               0.0000000      UZF02                                   
     3      (1,1,4)               0.0000000      UZF03                                   
     4      (1,1,5)               0.0000000      UZF04                                   
     5      (1,1,6)               0.0000000      UZF05                                   
     6      (1,1,7)               0.0000000      UZF06                                   
     7      (1,1,8)               0.0000000      UZF07                                   
     8      (1,1,9)               0.0000000      UZF08                                   
     9      (2,1,2)               0.0000000      UZF08                                   
     10     (2,1,3)               0.0000000      UZF10                                   
     11     (2,1,4)               0.0000000      UZF11                                   
     12     (2,1,5)               0.0000000      UZF12                                   
     13     (2,1,6)               0.0000000      UZF13                                   
     14     (2,1,7)               0.0000000      UZF14                                   
     15     (2,1,8)               0.0000000      UZF15                                   
     16     (2,1,9)               0.0000000      UZF16                                   
     17     (3,1,2)               0.0000000      UZF17                                   
     18     (3,1,3)               0.0000000      UZF18                                   
     19     (3,1,4)               0.0000000      UZF19                                   
     20     (3,1,5)               0.0000000      UZF20                                   
     21     (3,1,6)               0.0000000      UZF21                                   
     22     (3,1,7)               0.0000000      UZF22                                   
     23     (3,1,8)               0.0000000      UZF23                                   
     24     (3,1,9)               0.0000000      UZF24                                   
 ----------------------------------------------------------------------------------------




 UZF-GWD PACKAGE (UZF-1) FLOW RATES   PERIOD      5   STEP        6
 ----------------------------------------------------------------------------------------
   NUMBER   CELLID                    RATE       NAME                                    
 ----------------------------------------------------------------------------------------
     1      (1,1,2)               0.0000000      UZF01                                   
     2      (1,1,3)               0.0000000      UZF02                                   
     3      (1,1,4)               0.0000000      UZF03                                   
     4      (1,1,5)               0.0000000      UZF04                                   
     5      (1,1,6)               0.0000000      UZF05                                   
     6      (1,1,7)               0.0000000      UZF06                                   
     7      (1,1,8)               0.0000000      UZF07                                   
     8      (1,1,9)               0.0000000      UZF08                                   
     9      (2,1,2)               0.0000000      UZF08                                   
     10     (2,1,3)               0.0000000      UZF10                                   
     11     (2,1,4)               0.0000000      UZF11                                   
     12     (2,1,5)               0.0000000      UZF12                                   
     13     (2,1,6)               0.0000000      UZF13                                   
     14     (2,1,7)               0.0000000      UZF14                                   
     15     (2,1,8)               0.0000000      UZF15                                   
     16     (2,1,9)               0.0000000      UZF16                                   
     17     (3,1,2)               0.0000000      UZF17                                   
     18     (3,1,3)               0.0000000      UZF18                                   
     19     (3,1,4)               0.0000000      UZF19                                   
     20     (3,1,5)               0.0000000      UZF20                                   
     21     (3,1,6)               0.0000000      UZF21                                   
     22     (3,1,7)               0.0000000      UZF22                                   
     23     (3,1,8)               0.0000000      UZF23                                   
     24     (3,1,9)               0.0000000      UZF24                                   
 ----------------------------------------------------------------------------------------




 UZF-GWET PACKAGE (UZF-1) FLOW RATES   PERIOD      5   STEP        6
 ----------------------------------------------------------------------------------------
   NUMBER   CELLID                    RATE       NAME                                    
 ----------------------------------------------------------------------------------------
     1      (1,1,2)               0.0000000      UZF01                                   
     2      (1,1,3)               0.0000000      UZF02                                   
     3      (1,1,4)               0.0000000      UZF03                                   
     4      (1,1,5)               0.0000000      UZF04                                   
     5      (1,1,6)               0.0000000      UZF05                                   
     6      (1,1,7)               0.0000000      UZF06                                   
     7      (1,1,8)               0.0000000      UZF07                                   
     8      (1,1,9)               0.0000000      UZF08                                   
     9      (2,1,2)               0.0000000      UZF08                                   
     10     (2,1,3)               0.0000000      UZF10                                   
     11     (2,1,4)               0.0000000      UZF11                                   
     12     (2,1,5)               0.0000000      UZF12                                   
     13     (2,1,6)               0.0000000      UZF13                                   
     14     (2,1,7)               0.0000000      UZF14                                   
     15     (2,1,8)               0.0000000      UZF15                                   
     16     (2,1,9)               0.0000000      UZF16                                   
     17     (3,1,2)               0.0000000      UZF17                                   
     18     (3,1,3)               0.0000000      UZF18                                   
     19     (3,1,4)               0.0000000      UZF19                                   
     20     (3,1,5)               0.0000000      UZF20                                   
     21     (3,1,6)               0.0000000      UZF21                                   
     22     (3,1,7)               0.0000000      UZF22                                   
     23     (3,1,8)               0.0000000      UZF23                                   
     24     (3,1,9)               0.0000000      UZF24                                   
 ----------------------------------------------------------------------------------------




 UZF-1 PACKAGE - SUMMARY OF FLOWS FOR EACH CONTROL VOLUME   PERIOD      5   STEP        6
 ----------------------------------------------------------------------------------------------------------------------------------------------------
                                                                                                                                           PERCENT   
   NUMBER   CELLID                  INFLOW      OUTFLOW        GWF      INFILTRATION   REJ INF        UZET       STORAGE      IN - OUT    DIFFERENCE 
 ----------------------------------------------------------------------------------------------------------------------------------------------------
     1      (1,1,2)               0.0000      -1.1760       0.0000       0.0000       0.0000       0.0000       1.1760       1.96509E-13  1.67096E-11
     2      (1,1,3)               0.0000      -1.1760       0.0000       0.0000       0.0000       0.0000       1.1760       1.96509E-13  1.67096E-11
     3      (1,1,4)               0.0000      -1.1760       0.0000       0.0000       0.0000       0.0000       1.1760       1.96509E-13  1.67096E-11
     4      (1,1,5)               0.0000      -1.1760       0.0000       0.0000       0.0000       0.0000       1.1760       1.96509E-13  1.67096E-11
     5      (1,1,6)               0.0000      -1.1760       0.0000       0.0000       0.0000       0.0000       1.1760       1.96509E-13  1.67096E-11
     6      (1,1,7)               0.0000      -1.1760       0.0000       0.0000       0.0000       0.0000       1.1760       1.96509E-13  1.67096E-11
     7      (1,1,8)               0.0000      -1.1760       0.0000       0.0000       0.0000       0.0000       1.1760       1.96509E-13  1.67096E-11
     8      (1,1,9)               0.0000      -1.1760       0.0000       0.0000       0.0000       0.0000       1.1760       1.96509E-13  1.67096E-11
     9      (2,1,2)               1.1760      -23.953       0.0000       0.0000       0.0000      -6.46509E-02  22.842       6.59450E-05  2.74564E-04
     10     (2,1,3)               1.1760      -23.953       0.0000       0.0000       0.0000      -6.46509E-02  22.842       6.59450E-05  2.74564E-04
     11     (2,1,4)               1.1760      -23.953       0.0000       0.0000       0.0000      -6.46509E-02  22.842       6.59450E-05  2.74564E-04
     12     (2,1,5)               1.1760      -23.953       0.0000       0.0000       0.0000      -6.46509E-02  22.842       6.59450E-05  2.74564E-04
     13     (2,1,6)               1.1760      -23.953       0.0000       0.0000       0.0000      -6.46509E-02  22.842       6.59450E-05  2.74564E-04
     14     (2,1,7)               1.1760      -23.953       0.0000       0.0000       0.0000      -6.46509E-02  22.842       6.59450E-05  2.74564E-04
     15     (2,1,8)               1.1760      -23.953       0.0000       0.0000       0.0000      -6.46509E-02  22.842       6.59450E-05  2.74564E-04
     16     (2,1,9)               1.1760      -23.953       0.0000       0.0000       0.0000      -6.46509E-02  22.842       6.59450E-05  2.74564E-04
     17     (3,1,2)               23.953       0.0000       0.0000       0.0000       0.0000       0.0000      -23.953       2.58533E-06  1.07932E-05
     18     (3,1,3)               23.953       0.0000       0.0000       0.0000       0.0000       0.0000      -23.953       2.58533E-06  1.07932E-05
     19     (3,1,4)               23.953       0.0000       0.0000       0.0000       0.0000       0.0000      -23.953       2.58533E-06  1.07932E-05
     20     (3,1,5)               23.953       0.0000       0.0000       0.0000       0.0000       0.0000      -23.953       2.58533E-06  1.07932E-05
     21     (3,1,6)               23.953       0.0000       0.0000       0.0000       0.0000       0.0000      -23.953       2.58533E-06  1.07932E-05
     22     (3,1,7)               23.953       0.0000       0.0000       0.0000       0.0000       0.0000      -23.953       2.58533E-06  1.07932E-05
     23     (3,1,8)               23.953       0.0000       0.0000       0.0000       0.0000       0.0000      -23.953       2.58533E-06  1.07932E-05
     24     (3,1,9)               23.953       0.0000       0.0000       0.0000       0.0000       0.0000      -23.953       2.58533E-06  1.07932E-05
 ----------------------------------------------------------------------------------------------------------------------------------------------------


1
  HEAD IN LAYER   1 AT END OF TIME STEP   6 IN STRESS PERIOD    5
  ---------------------------------------------------------------------------

            1           2           3           4           5           6           7           8           9          10
 ........................................................................................................................
   1   -25.00      -25.00      -25.00      -25.00      -25.00      -25.00      -25.00      -25.00      -25.00      -25.00    
1
  HEAD IN LAYER   2 AT END OF TIME STEP   6 IN STRESS PERIOD    5
  ---------------------------------------------------------------------------

            1           2           3           4           5           6           7           8           9          10
 ........................................................................................................................
   1   -25.00      -25.00      -25.00      -25.00      -25.00      -25.00      -25.00      -25.00      -25.00      -25.00    
1
  HEAD IN LAYER   3 AT END OF TIME STEP   6 IN STRESS PERIOD    5
  ---------------------------------------------------------------------------

            1           2           3           4           5           6           7           8           9          10
 ........................................................................................................................
   1   -25.00      -25.00      -25.00      -25.00      -25.00      -25.00      -25.00      -25.00      -25.00      -25.00    

 HEAD WILL BE SAVED ON UNIT 1022 AT END OF TIME STEP    6, STRESS PERIOD    5


  UZF-1 BUDGET FOR ENTIRE MODEL AT END OF TIME STEP    6, STRESS PERIOD   5
  ------------------------------------------------------------------------------

     CUMULATIVE UZF-1      L**3       RATES FOR THIS TIME STEP      L**3/T
     ------------------                 ------------------------

           IN:                                      IN:
           ---                                      ---
                 GWF =           0.0000                   GWF =           0.0000
        INFILTRATION =      480000.0000          INFILTRATION =           0.0000
             REJ-INF =           0.0000               REJ-INF =           0.0000
                UZET =           0.0000                  UZET =           0.0000
             STORAGE =      326720.1968               STORAGE =         192.1448

            TOTAL IN =      806720.1968              TOTAL IN =         192.1448

          OUT:                                     OUT:
          ----                                     ----
                 GWF =           0.0000                   GWF =           0.0000
        INFILTRATION =           0.0000          INFILTRATION =           0.0000
             REJ-INF =           0.0000               REJ-INF =           0.0000
                UZET =         424.3850                  UZET =           0.5172
             STORAGE =      806238.6313               STORAGE =         191.6271

           TOTAL OUT =      806663.0163             TOTAL OUT =         192.1443

            IN - OUT =          57.1805              IN - OUT =       5.4824E-04

 PERCENT DISCREPANCY =           0.01     PERCENT DISCREPANCY =           0.00



  VOLUME BUDGET FOR ENTIRE MODEL AT END OF TIME STEP    6, STRESS PERIOD   5
  ---------------------------------------------------------------------------------------------------

     CUMULATIVE VOLUME      L**3       RATES FOR THIS TIME STEP      L**3/T          PACKAGE NAME    
     ------------------                 ------------------------                     ----------------

           IN:                                      IN:
           ---                                      ---
              STO-SS =           0.0000                STO-SS =           0.0000     STORAGE         
              STO-SY =           0.0000                STO-SY =           0.0000     STORAGE         
                 CHD =           0.0000                   CHD =           0.0000     CHD-1           
           UZF-GWRCH =           0.0000             UZF-GWRCH =           0.0000     UZF-1           
             UZF-GWD =           0.0000               UZF-GWD =           0.0000     UZF-1           
            UZF-GWET =           0.0000              UZF-GWET =           0.0000     UZF-1           

            TOTAL IN =           0.0000              TOTAL IN =           0.0000

          OUT:                                     OUT:
          ----                                     ----
              STO-SS =           0.0000                STO-SS =           0.0000     STORAGE         
              STO-SY =           0.0000                STO-SY =           0.0000     STORAGE         
                 CHD =           0.0000                   CHD =           0.0000     CHD-1           
           UZF-GWRCH =           0.0000             UZF-GWRCH =           0.0000     UZF-1           
             UZF-GWD =           0.0000               UZF-GWD =           0.0000     UZF-1           
            UZF-GWET =           0.0000              UZF-GWET =           0.0000     UZF-1           

           TOTAL OUT =           0.0000             TOTAL OUT =           0.0000

            IN - OUT =           0.0000              IN - OUT =           0.0000

 PERCENT DISCREPANCY =           0.00     PERCENT DISCREPANCY =           0.00




         TIME SUMMARY AT END OF TIME STEP    6 IN STRESS PERIOD    5
                    SECONDS     MINUTES      HOURS       DAYS        YEARS
                    -----------------------------------------------------------
   TIME STEP LENGTH 3.45600E+06  57600.      960.00      40.000     0.10951    
 STRESS PERIOD TIME 2.07360E+07 3.45600E+05  5760.0      240.00     0.65708    
         TOTAL TIME 6.91200E+07 1.15200E+06  19200.      800.00      2.1903    


end timestep


start timestep kper="5" kstp="7" mode="normal"

 UBDSV1 SAVING     FLOW-JA-FACE ON UNIT   1020 AT TIME STEP      7, STRESS PERIOD      5
 UBDSV06 SAVING     FLOW-JA-FACE IN MODEL GWF_1            PACKAGE UZF-1           CONNECTED TO MODEL GWF_1            PACKAGE UZF-1            ON UNIT   1014 AT TIME STEP      7, STRESS PERIOD      5
 UBDSV06 SAVING              GWF IN MODEL GWF_1            PACKAGE UZF-1           CONNECTED TO MODEL GWF_1            PACKAGE GWF_1            ON UNIT   1014 AT TIME STEP      7, STRESS PERIOD      5
 UBDSV06 SAVING     INFILTRATION IN MODEL GWF_1            PACKAGE UZF-1           CONNECTED TO MODEL GWF_1            PACKAGE UZF-1            ON UNIT   1014 AT TIME STEP      7, STRESS PERIOD      5
 UBDSV06 SAVING          REJ-INF IN MODEL GWF_1            PACKAGE UZF-1           CONNECTED TO MODEL GWF_1            PACKAGE UZF-1            ON UNIT   1014 AT TIME STEP      7, STRESS PERIOD      5
 UBDSV06 SAVING             UZET IN MODEL GWF_1            PACKAGE UZF-1           CONNECTED TO MODEL GWF_1            PACKAGE UZF-1            ON UNIT   1014 AT TIME STEP      7, STRESS PERIOD      5
 UBDSV06 SAVING          STORAGE IN MODEL GWF_1            PACKAGE UZF-1           CONNECTED TO MODEL GWF_1            PACKAGE UZF-1            ON UNIT   1014 AT TIME STEP      7, STRESS PERIOD      5

 CHD PACKAGE (CHD-1) FLOW RATES   PERIOD      5   STEP        7
 -----------------------------------------------
   NUMBER   CELLID                    RATE      
 -----------------------------------------------
     1      (3,1,1)               0.0000000     
     2      (3,1,10)              0.0000000     
 -----------------------------------------------




 UZF-GWRCH PACKAGE (UZF-1) FLOW RATES   PERIOD      5   STEP        7
 ----------------------------------------------------------------------------------------
   NUMBER   CELLID                    RATE       NAME                                    
 ----------------------------------------------------------------------------------------
     1      (1,1,2)               0.0000000      UZF01                                   
     2      (1,1,3)               0.0000000      UZF02                                   
     3      (1,1,4)               0.0000000      UZF03                                   
     4      (1,1,5)               0.0000000      UZF04                                   
     5      (1,1,6)               0.0000000      UZF05                                   
     6      (1,1,7)               0.0000000      UZF06                                   
     7      (1,1,8)               0.0000000      UZF07                                   
     8      (1,1,9)               0.0000000      UZF08                                   
     9      (2,1,2)               0.0000000      UZF08                                   
     10     (2,1,3)               0.0000000      UZF10                                   
     11     (2,1,4)               0.0000000      UZF11                                   
     12     (2,1,5)               0.0000000      UZF12                                   
     13     (2,1,6)               0.0000000      UZF13                                   
     14     (2,1,7)               0.0000000      UZF14                                   
     15     (2,1,8)               0.0000000      UZF15                                   
     16     (2,1,9)               0.0000000      UZF16                                   
     17     (3,1,2)               0.0000000      UZF17                                   
     18     (3,1,3)               0.0000000      UZF18                                   
     19     (3,1,4)               0.0000000      UZF19                                   
     20     (3,1,5)               0.0000000      UZF20                                   
     21     (3,1,6)               0.0000000      UZF21                                   
     22     (3,1,7)               0.0000000      UZF22                                   
     23     (3,1,8)               0.0000000      UZF23                                   
     24     (3,1,9)               0.0000000      UZF24                                   
 ----------------------------------------------------------------------------------------




 UZF-GWD PACKAGE (UZF-1) FLOW RATES   PERIOD      5   STEP        7
 ----------------------------------------------------------------------------------------
   NUMBER   CELLID                    RATE       NAME                                    
 ----------------------------------------------------------------------------------------
     1      (1,1,2)               0.0000000      UZF01                                   
     2      (1,1,3)               0.0000000      UZF02                                   
     3      (1,1,4)               0.0000000      UZF03                                   
     4      (1,1,5)               0.0000000      UZF04                                   
     5      (1,1,6)               0.0000000      UZF05                                   
     6      (1,1,7)               0.0000000      UZF06                                   
     7      (1,1,8)               0.0000000      UZF07                                   
     8      (1,1,9)               0.0000000      UZF08                                   
     9      (2,1,2)               0.0000000      UZF08                                   
     10     (2,1,3)               0.0000000      UZF10                                   
     11     (2,1,4)               0.0000000      UZF11                                   
     12     (2,1,5)               0.0000000      UZF12                                   
     13     (2,1,6)               0.0000000      UZF13                                   
     14     (2,1,7)               0.0000000      UZF14                                   
     15     (2,1,8)               0.0000000      UZF15                                   
     16     (2,1,9)               0.0000000      UZF16                                   
     17     (3,1,2)               0.0000000      UZF17                                   
     18     (3,1,3)               0.0000000      UZF18                                   
     19     (3,1,4)               0.0000000      UZF19                                   
     20     (3,1,5)               0.0000000      UZF20                                   
     21     (3,1,6)               0.0000000      UZF21                                   
     22     (3,1,7)               0.0000000      UZF22                                   
     23     (3,1,8)               0.0000000      UZF23                                   
     24     (3,1,9)               0.0000000      UZF24                                   
 ----------------------------------------------------------------------------------------




 UZF-GWET PACKAGE (UZF-1) FLOW RATES   PERIOD      5   STEP        7
 ----------------------------------------------------------------------------------------
   NUMBER   CELLID                    RATE       NAME                                    
 ----------------------------------------------------------------------------------------
     1      (1,1,2)               0.0000000      UZF01                                   
     2      (1,1,3)               0.0000000      UZF02                                   
     3      (1,1,4)               0.0000000      UZF03                                   
     4      (1,1,5)               0.0000000      UZF04                                   
     5      (1,1,6)               0.0000000      UZF05                                   
     6      (1,1,7)               0.0000000      UZF06                                   
     7      (1,1,8)               0.0000000      UZF07                                   
     8      (1,1,9)               0.0000000      UZF08                                   
     9      (2,1,2)               0.0000000      UZF08                                   
     10     (2,1,3)               0.0000000      UZF10                                   
     11     (2,1,4)               0.0000000      UZF11                                   
     12     (2,1,5)               0.0000000      UZF12                                   
     13     (2,1,6)               0.0000000      UZF13                                   
     14     (2,1,7)               0.0000000      UZF14                                   
     15     (2,1,8)               0.0000000      UZF15                                   
     16     (2,1,9)               0.0000000      UZF16                                   
     17     (3,1,2)               0.0000000      UZF17                                   
     18     (3,1,3)               0.0000000      UZF18                                   
     19     (3,1,4)               0.0000000      UZF19                                   
     20     (3,1,5)               0.0000000      UZF20                                   
     21     (3,1,6)               0.0000000      UZF21                                   
     22     (3,1,7)               0.0000000      UZF22                                   
     23     (3,1,8)               0.0000000      UZF23                                   
     24     (3,1,9)               0.0000000      UZF24                                   
 ----------------------------------------------------------------------------------------




 UZF-1 PACKAGE - SUMMARY OF FLOWS FOR EACH CONTROL VOLUME   PERIOD      5   STEP        7
 ----------------------------------------------------------------------------------------------------------------------------------------------------
                                                                                                                                           PERCENT   
   NUMBER   CELLID                  INFLOW      OUTFLOW        GWF      INFILTRATION   REJ INF        UZET       STORAGE      IN - OUT    DIFFERENCE 
 ----------------------------------------------------------------------------------------------------------------------------------------------------
     1      (1,1,2)               0.0000      -1.1760       0.0000       0.0000       0.0000       0.0000       1.1760      -1.50324E-13 -1.27824E-11
     2      (1,1,3)               0.0000      -1.1760       0.0000       0.0000       0.0000       0.0000       1.1760      -1.50324E-13 -1.27824E-11
     3      (1,1,4)               0.0000      -1.1760       0.0000       0.0000       0.0000       0.0000       1.1760      -1.50324E-13 -1.27824E-11
     4      (1,1,5)               0.0000      -1.1760       0.0000       0.0000       0.0000       0.0000       1.1760      -1.50324E-13 -1.27824E-11
     5      (1,1,6)               0.0000      -1.1760       0.0000       0.0000       0.0000       0.0000       1.1760      -1.50324E-13 -1.27824E-11
     6      (1,1,7)               0.0000      -1.1760       0.0000       0.0000       0.0000       0.0000       1.1760      -1.50324E-13 -1.27824E-11
     7      (1,1,8)               0.0000      -1.1760       0.0000       0.0000       0.0000       0.0000       1.1760      -1.50324E-13 -1.27824E-11
     8      (1,1,9)               0.0000      -1.1760       0.0000       0.0000       0.0000       0.0000       1.1760      -1.50324E-13 -1.27824E-11
     9      (2,1,2)               1.1760      -23.598       0.0000       0.0000       0.0000      -6.35811E-02  22.486       8.12894E-05  3.43546E-04
     10     (2,1,3)               1.1760      -23.598       0.0000       0.0000       0.0000      -6.35811E-02  22.486       8.12894E-05  3.43546E-04
     11     (2,1,4)               1.1760      -23.598       0.0000       0.0000       0.0000      -6.35811E-02  22.486       8.12894E-05  3.43546E-04
     12     (2,1,5)               1.1760      -23.598       0.0000       0.0000       0.0000      -6.35811E-02  22.486       8.12894E-05  3.43546E-04
     13     (2,1,6)               1.1760      -23.598       0.0000       0.0000       0.0000      -6.35811E-02  22.486       8.12894E-05  3.43546E-04
     14     (2,1,7)               1.1760      -23.598       0.0000       0.0000       0.0000      -6.35811E-02  22.486       8.12894E-05  3.43546E-04
     15     (2,1,8)               1.1760      -23.598       0.0000       0.0000       0.0000      -6.35811E-02  22.486       8.12894E-05  3.43546E-04
     16     (2,1,9)               1.1760      -23.598       0.0000       0.0000       0.0000      -6.35811E-02  22.486       8.12894E-05  3.43546E-04
     17     (3,1,2)               23.598       0.0000       0.0000       0.0000       0.0000       0.0000      -23.598       2.54032E-06  1.07649E-05
     18     (3,1,3)               23.598       0.0000       0.0000       0.0000       0.0000       0.0000      -23.598       2.54032E-06  1.07649E-05
     19     (3,1,4)               23.598       0.0000       0.0000       0.0000       0.0000       0.0000      -23.598       2.54032E-06  1.07649E-05
     20     (3,1,5)               23.598       0.0000       0.0000       0.0000       0.0000       0.0000      -23.598       2.54032E-06  1.07649E-05
     21     (3,1,6)               23.598       0.0000       0.0000       0.0000       0.0000       0.0000      -23.598       2.54032E-06  1.07649E-05
     22     (3,1,7)               23.598       0.0000       0.0000       0.0000       0.0000       0.0000      -23.598       2.54032E-06  1.07649E-05
     23     (3,1,8)               23.598       0.0000       0.0000       0.0000       0.0000       0.0000      -23.598       2.54032E-06  1.07649E-05
     24     (3,1,9)               23.598       0.0000       0.0000       0.0000       0.0000       0.0000      -23.598       2.54032E-06  1.07649E-05
 ----------------------------------------------------------------------------------------------------------------------------------------------------


1
  HEAD IN LAYER   1 AT END OF TIME STEP   7 IN STRESS PERIOD    5
  ---------------------------------------------------------------------------

            1           2           3           4           5           6           7           8           9          10
 ........................................................................................................................
   1   -25.00      -25.00      -25.00      -25.00      -25.00      -25.00      -25.00      -25.00      -25.00      -25.00    
1
  HEAD IN LAYER   2 AT END OF TIME STEP   7 IN STRESS PERIOD    5
  ---------------------------------------------------------------------------

            1           2           3           4           5           6           7           8           9          10
 ........................................................................................................................
   1   -25.00      -25.00      -25.00      -25.00      -25.00      -25.00      -25.00      -25.00      -25.00      -25.00    
1
  HEAD IN LAYER   3 AT END OF TIME STEP   7 IN STRESS PERIOD    5
  ---------------------------------------------------------------------------

            1           2           3           4           5           6           7           8           9          10
 ........................................................................................................................
   1   -25.00      -25.00      -25.00      -25.00      -25.00      -25.00      -25.00      -25.00      -25.00      -25.00    

 HEAD WILL BE SAVED ON UNIT 1022 AT END OF TIME STEP    7, STRESS PERIOD    5


  UZF-1 BUDGET FOR ENTIRE MODEL AT END OF TIME STEP    7, STRESS PERIOD   5
  ------------------------------------------------------------------------------

     CUMULATIVE UZF-1      L**3       RATES FOR THIS TIME STEP      L**3/T
     ------------------                 ------------------------

           IN:                                      IN:
           ---                                      ---
                 GWF =           0.0000                   GWF =           0.0000
        INFILTRATION =      480000.0000          INFILTRATION =           0.0000
             REJ-INF =           0.0000               REJ-INF =           0.0000
                UZET =           0.0000                  UZET =           0.0000
             STORAGE =      334292.0023               STORAGE =         189.2951

            TOTAL IN =      814292.0023              TOTAL IN =         189.2951

          OUT:                                     OUT:
          ----                                     ----
                 GWF =           0.0000                   GWF =           0.0000
        INFILTRATION =           0.0000          INFILTRATION =           0.0000
             REJ-INF =           0.0000               REJ-INF =           0.0000
                UZET =         444.7309                  UZET =           0.5086
             STORAGE =      813790.0641               STORAGE =         188.7858

           TOTAL OUT =      814234.7950             TOTAL OUT =         189.2945

            IN - OUT =          57.2073              IN - OUT =       6.7064E-04

 PERCENT DISCREPANCY =           0.01     PERCENT DISCREPANCY =           0.00



  VOLUME BUDGET FOR ENTIRE MODEL AT END OF TIME STEP    7, STRESS PERIOD   5
  ---------------------------------------------------------------------------------------------------

     CUMULATIVE VOLUME      L**3       RATES FOR THIS TIME STEP      L**3/T          PACKAGE NAME    
     ------------------                 ------------------------                     ----------------

           IN:                                      IN:
           ---                                      ---
              STO-SS =           0.0000                STO-SS =           0.0000     STORAGE         
              STO-SY =           0.0000                STO-SY =           0.0000     STORAGE         
                 CHD =           0.0000                   CHD =           0.0000     CHD-1           
           UZF-GWRCH =           0.0000             UZF-GWRCH =           0.0000     UZF-1           
             UZF-GWD =           0.0000               UZF-GWD =           0.0000     UZF-1           
            UZF-GWET =           0.0000              UZF-GWET =           0.0000     UZF-1           

            TOTAL IN =           0.0000              TOTAL IN =           0.0000

          OUT:                                     OUT:
          ----                                     ----
              STO-SS =           0.0000                STO-SS =           0.0000     STORAGE         
              STO-SY =           0.0000                STO-SY =           0.0000     STORAGE         
                 CHD =           0.0000                   CHD =           0.0000     CHD-1           
           UZF-GWRCH =           0.0000             UZF-GWRCH =           0.0000     UZF-1           
             UZF-GWD =           0.0000               UZF-GWD =           0.0000     UZF-1           
            UZF-GWET =           0.0000              UZF-GWET =           0.0000     UZF-1           

           TOTAL OUT =           0.0000             TOTAL OUT =           0.0000

            IN - OUT =           0.0000              IN - OUT =           0.0000

 PERCENT DISCREPANCY =           0.00     PERCENT DISCREPANCY =           0.00




         TIME SUMMARY AT END OF TIME STEP    7 IN STRESS PERIOD    5
                    SECONDS     MINUTES      HOURS       DAYS        YEARS
                    -----------------------------------------------------------
   TIME STEP LENGTH 3.45600E+06  57600.      960.00      40.000     0.10951    
 STRESS PERIOD TIME 2.41920E+07 4.03200E+05  6720.0      280.00     0.76660    
         TOTAL TIME 7.25760E+07 1.20960E+06  20160.      840.00      2.2998    


end timestep


start timestep kper="5" kstp="8" mode="normal"

 UBDSV1 SAVING     FLOW-JA-FACE ON UNIT   1020 AT TIME STEP      8, STRESS PERIOD      5
 UBDSV06 SAVING     FLOW-JA-FACE IN MODEL GWF_1            PACKAGE UZF-1           CONNECTED TO MODEL GWF_1            PACKAGE UZF-1            ON UNIT   1014 AT TIME STEP      8, STRESS PERIOD      5
 UBDSV06 SAVING              GWF IN MODEL GWF_1            PACKAGE UZF-1           CONNECTED TO MODEL GWF_1            PACKAGE GWF_1            ON UNIT   1014 AT TIME STEP      8, STRESS PERIOD      5
 UBDSV06 SAVING     INFILTRATION IN MODEL GWF_1            PACKAGE UZF-1           CONNECTED TO MODEL GWF_1            PACKAGE UZF-1            ON UNIT   1014 AT TIME STEP      8, STRESS PERIOD      5
 UBDSV06 SAVING          REJ-INF IN MODEL GWF_1            PACKAGE UZF-1           CONNECTED TO MODEL GWF_1            PACKAGE UZF-1            ON UNIT   1014 AT TIME STEP      8, STRESS PERIOD      5
 UBDSV06 SAVING             UZET IN MODEL GWF_1            PACKAGE UZF-1           CONNECTED TO MODEL GWF_1            PACKAGE UZF-1            ON UNIT   1014 AT TIME STEP      8, STRESS PERIOD      5
 UBDSV06 SAVING          STORAGE IN MODEL GWF_1            PACKAGE UZF-1           CONNECTED TO MODEL GWF_1            PACKAGE UZF-1            ON UNIT   1014 AT TIME STEP      8, STRESS PERIOD      5

 CHD PACKAGE (CHD-1) FLOW RATES   PERIOD      5   STEP        8
 -----------------------------------------------
   NUMBER   CELLID                    RATE      
 -----------------------------------------------
     1      (3,1,1)               0.0000000     
     2      (3,1,10)              0.0000000     
 -----------------------------------------------




 UZF-GWRCH PACKAGE (UZF-1) FLOW RATES   PERIOD      5   STEP        8
 ----------------------------------------------------------------------------------------
   NUMBER   CELLID                    RATE       NAME                                    
 ----------------------------------------------------------------------------------------
     1      (1,1,2)               0.0000000      UZF01                                   
     2      (1,1,3)               0.0000000      UZF02                                   
     3      (1,1,4)               0.0000000      UZF03                                   
     4      (1,1,5)               0.0000000      UZF04                                   
     5      (1,1,6)               0.0000000      UZF05                                   
     6      (1,1,7)               0.0000000      UZF06                                   
     7      (1,1,8)               0.0000000      UZF07                                   
     8      (1,1,9)               0.0000000      UZF08                                   
     9      (2,1,2)               0.0000000      UZF08                                   
     10     (2,1,3)               0.0000000      UZF10                                   
     11     (2,1,4)               0.0000000      UZF11                                   
     12     (2,1,5)               0.0000000      UZF12                                   
     13     (2,1,6)               0.0000000      UZF13                                   
     14     (2,1,7)               0.0000000      UZF14                                   
     15     (2,1,8)               0.0000000      UZF15                                   
     16     (2,1,9)               0.0000000      UZF16                                   
     17     (3,1,2)               0.0000000      UZF17                                   
     18     (3,1,3)               0.0000000      UZF18                                   
     19     (3,1,4)               0.0000000      UZF19                                   
     20     (3,1,5)               0.0000000      UZF20                                   
     21     (3,1,6)               0.0000000      UZF21                                   
     22     (3,1,7)               0.0000000      UZF22                                   
     23     (3,1,8)               0.0000000      UZF23                                   
     24     (3,1,9)               0.0000000      UZF24                                   
 ----------------------------------------------------------------------------------------




 UZF-GWD PACKAGE (UZF-1) FLOW RATES   PERIOD      5   STEP        8
 ----------------------------------------------------------------------------------------
   NUMBER   CELLID                    RATE       NAME                                    
 ----------------------------------------------------------------------------------------
     1      (1,1,2)               0.0000000      UZF01                                   
     2      (1,1,3)               0.0000000      UZF02                                   
     3      (1,1,4)               0.0000000      UZF03                                   
     4      (1,1,5)               0.0000000      UZF04                                   
     5      (1,1,6)               0.0000000      UZF05                                   
     6      (1,1,7)               0.0000000      UZF06                                   
     7      (1,1,8)               0.0000000      UZF07                                   
     8      (1,1,9)               0.0000000      UZF08                                   
     9      (2,1,2)               0.0000000      UZF08                                   
     10     (2,1,3)               0.0000000      UZF10                                   
     11     (2,1,4)               0.0000000      UZF11                                   
     12     (2,1,5)               0.0000000      UZF12                                   
     13     (2,1,6)               0.0000000      UZF13                                   
     14     (2,1,7)               0.0000000      UZF14                                   
     15     (2,1,8)               0.0000000      UZF15                                   
     16     (2,1,9)               0.0000000      UZF16                                   
     17     (3,1,2)               0.0000000      UZF17                                   
     18     (3,1,3)               0.0000000      UZF18                                   
     19     (3,1,4)               0.0000000      UZF19                                   
     20     (3,1,5)               0.0000000      UZF20                                   
     21     (3,1,6)               0.0000000      UZF21                                   
     22     (3,1,7)               0.0000000      UZF22                                   
     23     (3,1,8)               0.0000000      UZF23                                   
     24     (3,1,9)               0.0000000      UZF24                                   
 ----------------------------------------------------------------------------------------




 UZF-GWET PACKAGE (UZF-1) FLOW RATES   PERIOD      5   STEP        8
 ----------------------------------------------------------------------------------------
   NUMBER   CELLID                    RATE       NAME                                    
 ----------------------------------------------------------------------------------------
     1      (1,1,2)               0.0000000      UZF01                                   
     2      (1,1,3)               0.0000000      UZF02                                   
     3      (1,1,4)               0.0000000      UZF03                                   
     4      (1,1,5)               0.0000000      UZF04                                   
     5      (1,1,6)               0.0000000      UZF05                                   
     6      (1,1,7)               0.0000000      UZF06                                   
     7      (1,1,8)               0.0000000      UZF07                                   
     8      (1,1,9)               0.0000000      UZF08                                   
     9      (2,1,2)               0.0000000      UZF08                                   
     10     (2,1,3)               0.0000000      UZF10                                   
     11     (2,1,4)               0.0000000      UZF11                                   
     12     (2,1,5)               0.0000000      UZF12                                   
     13     (2,1,6)               0.0000000      UZF13                                   
     14     (2,1,7)               0.0000000      UZF14                                   
     15     (2,1,8)               0.0000000      UZF15                                   
     16     (2,1,9)               0.0000000      UZF16                                   
     17     (3,1,2)               0.0000000      UZF17                                   
     18     (3,1,3)               0.0000000      UZF18                                   
     19     (3,1,4)               0.0000000      UZF19                                   
     20     (3,1,5)               0.0000000      UZF20                                   
     21     (3,1,6)               0.0000000      UZF21                                   
     22     (3,1,7)               0.0000000      UZF22                                   
     23     (3,1,8)               0.0000000      UZF23                                   
     24     (3,1,9)               0.0000000      UZF24                                   
 ----------------------------------------------------------------------------------------




 UZF-1 PACKAGE - SUMMARY OF FLOWS FOR EACH CONTROL VOLUME   PERIOD      5   STEP        8
 ----------------------------------------------------------------------------------------------------------------------------------------------------
                                                                                                                                           PERCENT   
   NUMBER   CELLID                  INFLOW      OUTFLOW        GWF      INFILTRATION   REJ INF        UZET       STORAGE      IN - OUT    DIFFERENCE 
 ----------------------------------------------------------------------------------------------------------------------------------------------------
     1      (1,1,2)               0.0000      -1.1760       0.0000       0.0000       0.0000       0.0000       1.1760       2.33147E-14  1.98249E-12
     2      (1,1,3)               0.0000      -1.1760       0.0000       0.0000       0.0000       0.0000       1.1760       2.33147E-14  1.98249E-12
     3      (1,1,4)               0.0000      -1.1760       0.0000       0.0000       0.0000       0.0000       1.1760       2.33147E-14  1.98249E-12
     4      (1,1,5)               0.0000      -1.1760       0.0000       0.0000       0.0000       0.0000       1.1760       2.33147E-14  1.98249E-12
     5      (1,1,6)               0.0000      -1.1760       0.0000       0.0000       0.0000       0.0000       1.1760       2.33147E-14  1.98249E-12
     6      (1,1,7)               0.0000      -1.1760       0.0000       0.0000       0.0000       0.0000       1.1760       2.33147E-14  1.98249E-12
     7      (1,1,8)               0.0000      -1.1760       0.0000       0.0000       0.0000       0.0000       1.1760       2.33147E-14  1.98249E-12
     8      (1,1,9)               0.0000      -1.1760       0.0000       0.0000       0.0000       0.0000       1.1760       2.33147E-14  1.98249E-12
     9      (2,1,2)               1.1760      -19.901       0.0000       0.0000       0.0000      -6.25113E-02  18.788       9.62040E-05  4.81890E-04
     10     (2,1,3)               1.1760      -19.901       0.0000       0.0000       0.0000      -6.25113E-02  18.788       9.62040E-05  4.81890E-04
     11     (2,1,4)               1.1760      -19.901       0.0000       0.0000       0.0000      -6.25113E-02  18.788       9.62040E-05  4.81890E-04
     12     (2,1,5)               1.1760      -19.901       0.0000       0.0000       0.0000      -6.25113E-02  18.788       9.62040E-05  4.81890E-04
     13     (2,1,6)               1.1760      -19.901       0.0000       0.0000       0.0000      -6.25113E-02  18.788       9.62040E-05  4.81890E-04
     14     (2,1,7)               1.1760      -19.901       0.0000       0.0000       0.0000      -6.25113E-02  18.788       9.62040E-05  4.81890E-04
     15     (2,1,8)               1.1760      -19.901       0.0000       0.0000       0.0000      -6.25113E-02  18.788       9.62040E-05  4.81890E-04
     16     (2,1,9)               1.1760      -19.901       0.0000       0.0000       0.0000      -6.25113E-02  18.788       9.62040E-05  4.81890E-04
     17     (3,1,2)               19.901       0.0000       0.0000       0.0000       0.0000       0.0000      -19.901       2.25304E-06  1.13211E-05
     18     (3,1,3)               19.901       0.0000       0.0000       0.0000       0.0000       0.0000      -19.901       2.25304E-06  1.13211E-05
     19     (3,1,4)               19.901       0.0000       0.0000       0.0000       0.0000       0.0000      -19.901       2.25304E-06  1.13211E-05
     20     (3,1,5)               19.901       0.0000       0.0000       0.0000       0.0000       0.0000      -19.901       2.25304E-06  1.13211E-05
     21     (3,1,6)               19.901       0.0000       0.0000       0.0000       0.0000       0.0000      -19.901       2.25304E-06  1.13211E-05
     22     (3,1,7)               19.901       0.0000       0.0000       0.0000       0.0000       0.0000      -19.901       2.25304E-06  1.13211E-05
     23     (3,1,8)               19.901       0.0000       0.0000       0.0000       0.0000       0.0000      -19.901       2.25304E-06  1.13211E-05
     24     (3,1,9)               19.901       0.0000       0.0000       0.0000       0.0000       0.0000      -19.901       2.25304E-06  1.13211E-05
 ----------------------------------------------------------------------------------------------------------------------------------------------------


1
  HEAD IN LAYER   1 AT END OF TIME STEP   8 IN STRESS PERIOD    5
  ---------------------------------------------------------------------------

            1           2           3           4           5           6           7           8           9          10
 ........................................................................................................................
   1   -25.00      -25.00      -25.00      -25.00      -25.00      -25.00      -25.00      -25.00      -25.00      -25.00    
1
  HEAD IN LAYER   2 AT END OF TIME STEP   8 IN STRESS PERIOD    5
  ---------------------------------------------------------------------------

            1           2           3           4           5           6           7           8           9          10
 ........................................................................................................................
   1   -25.00      -25.00      -25.00      -25.00      -25.00      -25.00      -25.00      -25.00      -25.00      -25.00    
1
  HEAD IN LAYER   3 AT END OF TIME STEP   8 IN STRESS PERIOD    5
  ---------------------------------------------------------------------------

            1           2           3           4           5           6           7           8           9          10
 ........................................................................................................................
   1   -25.00      -25.00      -25.00      -25.00      -25.00      -25.00      -25.00      -25.00      -25.00      -25.00    

 HEAD WILL BE SAVED ON UNIT 1022 AT END OF TIME STEP    8, STRESS PERIOD    5


  UZF-1 BUDGET FOR ENTIRE MODEL AT END OF TIME STEP    8, STRESS PERIOD   5
  ------------------------------------------------------------------------------

     CUMULATIVE UZF-1      L**3       RATES FOR THIS TIME STEP      L**3/T
     ------------------                 ------------------------

           IN:                                      IN:
           ---                                      ---
                 GWF =           0.0000                   GWF =           0.0000
        INFILTRATION =      480000.0000          INFILTRATION =           0.0000
             REJ-INF =           0.0000               REJ-INF =           0.0000
                UZET =           0.0000                  UZET =           0.0000
             STORAGE =      340680.4637               STORAGE =         159.7115

            TOTAL IN =      820680.4637              TOTAL IN =         159.7115

          OUT:                                     OUT:
          ----                                     ----
                 GWF =           0.0000                   GWF =           0.0000
        INFILTRATION =           0.0000          INFILTRATION =           0.0000
             REJ-INF =           0.0000               REJ-INF =           0.0000
                UZET =         464.7346                  UZET =           0.5001
             STORAGE =      820158.4903               STORAGE =         159.2107

           TOTAL OUT =      820623.2249             TOTAL OUT =         159.7107

            IN - OUT =          57.2388              IN - OUT =       7.8766E-04

 PERCENT DISCREPANCY =           0.01     PERCENT DISCREPANCY =           0.00



  VOLUME BUDGET FOR ENTIRE MODEL AT END OF TIME STEP    8, STRESS PERIOD   5
  ---------------------------------------------------------------------------------------------------

     CUMULATIVE VOLUME      L**3       RATES FOR THIS TIME STEP      L**3/T          PACKAGE NAME    
     ------------------                 ------------------------                     ----------------

           IN:                                      IN:
           ---                                      ---
              STO-SS =           0.0000                STO-SS =           0.0000     STORAGE         
              STO-SY =           0.0000                STO-SY =           0.0000     STORAGE         
                 CHD =           0.0000                   CHD =           0.0000     CHD-1           
           UZF-GWRCH =           0.0000             UZF-GWRCH =           0.0000     UZF-1           
             UZF-GWD =           0.0000               UZF-GWD =           0.0000     UZF-1           
            UZF-GWET =           0.0000              UZF-GWET =           0.0000     UZF-1           

            TOTAL IN =           0.0000              TOTAL IN =           0.0000

          OUT:                                     OUT:
          ----                                     ----
              STO-SS =           0.0000                STO-SS =           0.0000     STORAGE         
              STO-SY =           0.0000                STO-SY =           0.0000     STORAGE         
                 CHD =           0.0000                   CHD =           0.0000     CHD-1           
           UZF-GWRCH =           0.0000             UZF-GWRCH =           0.0000     UZF-1           
             UZF-GWD =           0.0000               UZF-GWD =           0.0000     UZF-1           
            UZF-GWET =           0.0000              UZF-GWET =           0.0000     UZF-1           

           TOTAL OUT =           0.0000             TOTAL OUT =           0.0000

            IN - OUT =           0.0000              IN - OUT =           0.0000

 PERCENT DISCREPANCY =           0.00     PERCENT DISCREPANCY =           0.00




         TIME SUMMARY AT END OF TIME STEP    8 IN STRESS PERIOD    5
                    SECONDS     MINUTES      HOURS       DAYS        YEARS
                    -----------------------------------------------------------
   TIME STEP LENGTH 3.45600E+06  57600.      960.00      40.000     0.10951    
 STRESS PERIOD TIME 2.76480E+07 4.60800E+05  7680.0      320.00     0.87611    
         TOTAL TIME 7.60320E+07 1.26720E+06  21120.      880.00      2.4093    


end timestep


start timestep kper="5" kstp="9" mode="normal"

 UBDSV1 SAVING     FLOW-JA-FACE ON UNIT   1020 AT TIME STEP      9, STRESS PERIOD      5
 UBDSV06 SAVING     FLOW-JA-FACE IN MODEL GWF_1            PACKAGE UZF-1           CONNECTED TO MODEL GWF_1            PACKAGE UZF-1            ON UNIT   1014 AT TIME STEP      9, STRESS PERIOD      5
 UBDSV06 SAVING              GWF IN MODEL GWF_1            PACKAGE UZF-1           CONNECTED TO MODEL GWF_1            PACKAGE GWF_1            ON UNIT   1014 AT TIME STEP      9, STRESS PERIOD      5
 UBDSV06 SAVING     INFILTRATION IN MODEL GWF_1            PACKAGE UZF-1           CONNECTED TO MODEL GWF_1            PACKAGE UZF-1            ON UNIT   1014 AT TIME STEP      9, STRESS PERIOD      5
 UBDSV06 SAVING          REJ-INF IN MODEL GWF_1            PACKAGE UZF-1           CONNECTED TO MODEL GWF_1            PACKAGE UZF-1            ON UNIT   1014 AT TIME STEP      9, STRESS PERIOD      5
 UBDSV06 SAVING             UZET IN MODEL GWF_1            PACKAGE UZF-1           CONNECTED TO MODEL GWF_1            PACKAGE UZF-1            ON UNIT   1014 AT TIME STEP      9, STRESS PERIOD      5
 UBDSV06 SAVING          STORAGE IN MODEL GWF_1            PACKAGE UZF-1           CONNECTED TO MODEL GWF_1            PACKAGE UZF-1            ON UNIT   1014 AT TIME STEP      9, STRESS PERIOD      5

 CHD PACKAGE (CHD-1) FLOW RATES   PERIOD      5   STEP        9
 -----------------------------------------------
   NUMBER   CELLID                    RATE      
 -----------------------------------------------
     1      (3,1,1)               0.0000000     
     2      (3,1,10)              0.0000000     
 -----------------------------------------------




 UZF-GWRCH PACKAGE (UZF-1) FLOW RATES   PERIOD      5   STEP        9
 ----------------------------------------------------------------------------------------
   NUMBER   CELLID                    RATE       NAME                                    
 ----------------------------------------------------------------------------------------
     1      (1,1,2)               0.0000000      UZF01                                   
     2      (1,1,3)               0.0000000      UZF02                                   
     3      (1,1,4)               0.0000000      UZF03                                   
     4      (1,1,5)               0.0000000      UZF04                                   
     5      (1,1,6)               0.0000000      UZF05                                   
     6      (1,1,7)               0.0000000      UZF06                                   
     7      (1,1,8)               0.0000000      UZF07                                   
     8      (1,1,9)               0.0000000      UZF08                                   
     9      (2,1,2)               0.0000000      UZF08                                   
     10     (2,1,3)               0.0000000      UZF10                                   
     11     (2,1,4)               0.0000000      UZF11                                   
     12     (2,1,5)               0.0000000      UZF12                                   
     13     (2,1,6)               0.0000000      UZF13                                   
     14     (2,1,7)               0.0000000      UZF14                                   
     15     (2,1,8)               0.0000000      UZF15                                   
     16     (2,1,9)               0.0000000      UZF16                                   
     17     (3,1,2)               0.0000000      UZF17                                   
     18     (3,1,3)               0.0000000      UZF18                                   
     19     (3,1,4)               0.0000000      UZF19                                   
     20     (3,1,5)               0.0000000      UZF20                                   
     21     (3,1,6)               0.0000000      UZF21                                   
     22     (3,1,7)               0.0000000      UZF22                                   
     23     (3,1,8)               0.0000000      UZF23                                   
     24     (3,1,9)               0.0000000      UZF24                                   
 ----------------------------------------------------------------------------------------




 UZF-GWD PACKAGE (UZF-1) FLOW RATES   PERIOD      5   STEP        9
 ----------------------------------------------------------------------------------------
   NUMBER   CELLID                    RATE       NAME                                    
 ----------------------------------------------------------------------------------------
     1      (1,1,2)               0.0000000      UZF01                                   
     2      (1,1,3)               0.0000000      UZF02                                   
     3      (1,1,4)               0.0000000      UZF03                                   
     4      (1,1,5)               0.0000000      UZF04                                   
     5      (1,1,6)               0.0000000      UZF05                                   
     6      (1,1,7)               0.0000000      UZF06                                   
     7      (1,1,8)               0.0000000      UZF07                                   
     8      (1,1,9)               0.0000000      UZF08                                   
     9      (2,1,2)               0.0000000      UZF08                                   
     10     (2,1,3)               0.0000000      UZF10                                   
     11     (2,1,4)               0.0000000      UZF11                                   
     12     (2,1,5)               0.0000000      UZF12                                   
     13     (2,1,6)               0.0000000      UZF13                                   
     14     (2,1,7)               0.0000000      UZF14                                   
     15     (2,1,8)               0.0000000      UZF15                                   
     16     (2,1,9)               0.0000000      UZF16                                   
     17     (3,1,2)               0.0000000      UZF17                                   
     18     (3,1,3)               0.0000000      UZF18                                   
     19     (3,1,4)               0.0000000      UZF19                                   
     20     (3,1,5)               0.0000000      UZF20                                   
     21     (3,1,6)               0.0000000      UZF21                                   
     22     (3,1,7)               0.0000000      UZF22                                   
     23     (3,1,8)               0.0000000      UZF23                                   
     24     (3,1,9)               0.0000000      UZF24                                   
 ----------------------------------------------------------------------------------------




 UZF-GWET PACKAGE (UZF-1) FLOW RATES   PERIOD      5   STEP        9
 ----------------------------------------------------------------------------------------
   NUMBER   CELLID                    RATE       NAME                                    
 ----------------------------------------------------------------------------------------
     1      (1,1,2)               0.0000000      UZF01                                   
     2      (1,1,3)               0.0000000      UZF02                                   
     3      (1,1,4)               0.0000000      UZF03                                   
     4      (1,1,5)               0.0000000      UZF04                                   
     5      (1,1,6)               0.0000000      UZF05                                   
     6      (1,1,7)               0.0000000      UZF06                                   
     7      (1,1,8)               0.0000000      UZF07                                   
     8      (1,1,9)               0.0000000      UZF08                                   
     9      (2,1,2)               0.0000000      UZF08                                   
     10     (2,1,3)               0.0000000      UZF10                                   
     11     (2,1,4)               0.0000000      UZF11                                   
     12     (2,1,5)               0.0000000      UZF12                                   
     13     (2,1,6)               0.0000000      UZF13                                   
     14     (2,1,7)               0.0000000      UZF14                                   
     15     (2,1,8)               0.0000000      UZF15                                   
     16     (2,1,9)               0.0000000      UZF16                                   
     17     (3,1,2)               0.0000000      UZF17                                   
     18     (3,1,3)               0.0000000      UZF18                                   
     19     (3,1,4)               0.0000000      UZF19                                   
     20     (3,1,5)               0.0000000      UZF20                                   
     21     (3,1,6)               0.0000000      UZF21                                   
     22     (3,1,7)               0.0000000      UZF22                                   
     23     (3,1,8)               0.0000000      UZF23                                   
     24     (3,1,9)               0.0000000      UZF24                                   
 ----------------------------------------------------------------------------------------




 UZF-1 PACKAGE - SUMMARY OF FLOWS FOR EACH CONTROL VOLUME   PERIOD      5   STEP        9
 ----------------------------------------------------------------------------------------------------------------------------------------------------
                                                                                                                                           PERCENT   
   NUMBER   CELLID                  INFLOW      OUTFLOW        GWF      INFILTRATION   REJ INF        UZET       STORAGE      IN - OUT    DIFFERENCE 
 ----------------------------------------------------------------------------------------------------------------------------------------------------
     1      (1,1,2)               0.0000      -1.1760       0.0000       0.0000       0.0000       0.0000       1.1760      -1.50324E-13 -1.27824E-11
     2      (1,1,3)               0.0000      -1.1760       0.0000       0.0000       0.0000       0.0000       1.1760      -1.50324E-13 -1.27824E-11
     3      (1,1,4)               0.0000      -1.1760       0.0000       0.0000       0.0000       0.0000       1.1760      -1.50324E-13 -1.27824E-11
     4      (1,1,5)               0.0000      -1.1760       0.0000       0.0000       0.0000       0.0000       1.1760      -1.50324E-13 -1.27824E-11
     5      (1,1,6)               0.0000      -1.1760       0.0000       0.0000       0.0000       0.0000       1.1760      -1.50324E-13 -1.27824E-11
     6      (1,1,7)               0.0000      -1.1760       0.0000       0.0000       0.0000       0.0000       1.1760      -1.50324E-13 -1.27824E-11
     7      (1,1,8)               0.0000      -1.1760       0.0000       0.0000       0.0000       0.0000       1.1760      -1.50324E-13 -1.27824E-11
     8      (1,1,9)               0.0000      -1.1760       0.0000       0.0000       0.0000       0.0000       1.1760      -1.50324E-13 -1.27824E-11
     9      (2,1,2)               1.1760      -19.302       0.0000       0.0000       0.0000      -6.14414E-02  18.188       1.10689E-04  5.71623E-04
     10     (2,1,3)               1.1760      -19.302       0.0000       0.0000       0.0000      -6.14414E-02  18.188       1.10689E-04  5.71623E-04
     11     (2,1,4)               1.1760      -19.302       0.0000       0.0000       0.0000      -6.14414E-02  18.188       1.10689E-04  5.71623E-04
     12     (2,1,5)               1.1760      -19.302       0.0000       0.0000       0.0000      -6.14414E-02  18.188       1.10689E-04  5.71623E-04
     13     (2,1,6)               1.1760      -19.302       0.0000       0.0000       0.0000      -6.14414E-02  18.188       1.10689E-04  5.71623E-04
     14     (2,1,7)               1.1760      -19.302       0.0000       0.0000       0.0000      -6.14414E-02  18.188       1.10689E-04  5.71623E-04
     15     (2,1,8)               1.1760      -19.302       0.0000       0.0000       0.0000      -6.14414E-02  18.188       1.10689E-04  5.71623E-04
     16     (2,1,9)               1.1760      -19.302       0.0000       0.0000       0.0000      -6.14414E-02  18.188       1.10689E-04  5.71623E-04
     17     (3,1,2)               19.302       0.0000       0.0000       0.0000       0.0000       0.0000      -19.302       2.18679E-06  1.13291E-05
     18     (3,1,3)               19.302       0.0000       0.0000       0.0000       0.0000       0.0000      -19.302       2.18679E-06  1.13291E-05
     19     (3,1,4)               19.302       0.0000       0.0000       0.0000       0.0000       0.0000      -19.302       2.18679E-06  1.13291E-05
     20     (3,1,5)               19.302       0.0000       0.0000       0.0000       0.0000       0.0000      -19.302       2.18679E-06  1.13291E-05
     21     (3,1,6)               19.302       0.0000       0.0000       0.0000       0.0000       0.0000      -19.302       2.18679E-06  1.13291E-05
     22     (3,1,7)               19.302       0.0000       0.0000       0.0000       0.0000       0.0000      -19.302       2.18679E-06  1.13291E-05
     23     (3,1,8)               19.302       0.0000       0.0000       0.0000       0.0000       0.0000      -19.302       2.18679E-06  1.13291E-05
     24     (3,1,9)               19.302       0.0000       0.0000       0.0000       0.0000       0.0000      -19.302       2.18679E-06  1.13291E-05
 ----------------------------------------------------------------------------------------------------------------------------------------------------


1
  HEAD IN LAYER   1 AT END OF TIME STEP   9 IN STRESS PERIOD    5
  ---------------------------------------------------------------------------

            1           2           3           4           5           6           7           8           9          10
 ........................................................................................................................
   1   -25.00      -25.00      -25.00      -25.00      -25.00      -25.00      -25.00      -25.00      -25.00      -25.00    
1
  HEAD IN LAYER   2 AT END OF TIME STEP   9 IN STRESS PERIOD    5
  ---------------------------------------------------------------------------

            1           2           3           4           5           6           7           8           9          10
 ........................................................................................................................
   1   -25.00      -25.00      -25.00      -25.00      -25.00      -25.00      -25.00      -25.00      -25.00      -25.00    
1
  HEAD IN LAYER   3 AT END OF TIME STEP   9 IN STRESS PERIOD    5
  ---------------------------------------------------------------------------

            1           2           3           4           5           6           7           8           9          10
 ........................................................................................................................
   1   -25.00      -25.00      -25.00      -25.00      -25.00      -25.00      -25.00      -25.00      -25.00      -25.00    

 HEAD WILL BE SAVED ON UNIT 1022 AT END OF TIME STEP    9, STRESS PERIOD    5


  UZF-1 BUDGET FOR ENTIRE MODEL AT END OF TIME STEP    9, STRESS PERIOD   5
  ------------------------------------------------------------------------------

     CUMULATIVE UZF-1      L**3       RATES FOR THIS TIME STEP      L**3/T
     ------------------                 ------------------------

           IN:                                      IN:
           ---                                      ---
                 GWF =           0.0000                   GWF =           0.0000
        INFILTRATION =      480000.0000          INFILTRATION =           0.0000
             REJ-INF =           0.0000               REJ-INF =           0.0000
                UZET =           0.0000                  UZET =           0.0000
             STORAGE =      346876.9516               STORAGE =         154.9122

            TOTAL IN =      826876.9516              TOTAL IN =         154.9122

          OUT:                                     OUT:
          ----                                     ----
                 GWF =           0.0000                   GWF =           0.0000
        INFILTRATION =           0.0000          INFILTRATION =           0.0000
             REJ-INF =           0.0000               REJ-INF =           0.0000
                UZET =         484.3958                  UZET =           0.4915
             STORAGE =      826335.2809               STORAGE =         154.4198

           TOTAL OUT =      826819.6767             TOTAL OUT =         154.9113

            IN - OUT =          57.2749              IN - OUT =       9.0301E-04

 PERCENT DISCREPANCY =           0.01     PERCENT DISCREPANCY =           0.00



  VOLUME BUDGET FOR ENTIRE MODEL AT END OF TIME STEP    9, STRESS PERIOD   5
  ---------------------------------------------------------------------------------------------------

     CUMULATIVE VOLUME      L**3       RATES FOR THIS TIME STEP      L**3/T          PACKAGE NAME    
     ------------------                 ------------------------                     ----------------

           IN:                                      IN:
           ---                                      ---
              STO-SS =           0.0000                STO-SS =           0.0000     STORAGE         
              STO-SY =           0.0000                STO-SY =           0.0000     STORAGE         
                 CHD =           0.0000                   CHD =           0.0000     CHD-1           
           UZF-GWRCH =           0.0000             UZF-GWRCH =           0.0000     UZF-1           
             UZF-GWD =           0.0000               UZF-GWD =           0.0000     UZF-1           
            UZF-GWET =           0.0000              UZF-GWET =           0.0000     UZF-1           

            TOTAL IN =           0.0000              TOTAL IN =           0.0000

          OUT:                                     OUT:
          ----                                     ----
              STO-SS =           0.0000                STO-SS =           0.0000     STORAGE         
              STO-SY =           0.0000                STO-SY =           0.0000     STORAGE         
                 CHD =           0.0000                   CHD =           0.0000     CHD-1           
           UZF-GWRCH =           0.0000             UZF-GWRCH =           0.0000     UZF-1           
             UZF-GWD =           0.0000               UZF-GWD =           0.0000     UZF-1           
            UZF-GWET =           0.0000              UZF-GWET =           0.0000     UZF-1           

           TOTAL OUT =           0.0000             TOTAL OUT =           0.0000

            IN - OUT =           0.0000              IN - OUT =           0.0000

 PERCENT DISCREPANCY =           0.00     PERCENT DISCREPANCY =           0.00




         TIME SUMMARY AT END OF TIME STEP    9 IN STRESS PERIOD    5
                    SECONDS     MINUTES      HOURS       DAYS        YEARS
                    -----------------------------------------------------------
   TIME STEP LENGTH 3.45600E+06  57600.      960.00      40.000     0.10951    
 STRESS PERIOD TIME 3.11040E+07 5.18400E+05  8640.0      360.00     0.98563    
         TOTAL TIME 7.94880E+07 1.32480E+06  22080.      920.00      2.5188    


end timestep


start timestep kper="5" kstp="10" mode="normal"

 UBDSV1 SAVING     FLOW-JA-FACE ON UNIT   1020 AT TIME STEP     10, STRESS PERIOD      5
 UBDSV06 SAVING     FLOW-JA-FACE IN MODEL GWF_1            PACKAGE UZF-1           CONNECTED TO MODEL GWF_1            PACKAGE UZF-1            ON UNIT   1014 AT TIME STEP     10, STRESS PERIOD      5
 UBDSV06 SAVING              GWF IN MODEL GWF_1            PACKAGE UZF-1           CONNECTED TO MODEL GWF_1            PACKAGE GWF_1            ON UNIT   1014 AT TIME STEP     10, STRESS PERIOD      5
 UBDSV06 SAVING     INFILTRATION IN MODEL GWF_1            PACKAGE UZF-1           CONNECTED TO MODEL GWF_1            PACKAGE UZF-1            ON UNIT   1014 AT TIME STEP     10, STRESS PERIOD      5
 UBDSV06 SAVING          REJ-INF IN MODEL GWF_1            PACKAGE UZF-1           CONNECTED TO MODEL GWF_1            PACKAGE UZF-1            ON UNIT   1014 AT TIME STEP     10, STRESS PERIOD      5
 UBDSV06 SAVING             UZET IN MODEL GWF_1            PACKAGE UZF-1           CONNECTED TO MODEL GWF_1            PACKAGE UZF-1            ON UNIT   1014 AT TIME STEP     10, STRESS PERIOD      5
 UBDSV06 SAVING          STORAGE IN MODEL GWF_1            PACKAGE UZF-1           CONNECTED TO MODEL GWF_1            PACKAGE UZF-1            ON UNIT   1014 AT TIME STEP     10, STRESS PERIOD      5

 CHD PACKAGE (CHD-1) FLOW RATES   PERIOD      5   STEP       10
 -----------------------------------------------
   NUMBER   CELLID                    RATE      
 -----------------------------------------------
     1      (3,1,1)               0.0000000     
     2      (3,1,10)              0.0000000     
 -----------------------------------------------




 UZF-GWRCH PACKAGE (UZF-1) FLOW RATES   PERIOD      5   STEP       10
 ----------------------------------------------------------------------------------------
   NUMBER   CELLID                    RATE       NAME                                    
 ----------------------------------------------------------------------------------------
     1      (1,1,2)               0.0000000      UZF01                                   
     2      (1,1,3)               0.0000000      UZF02                                   
     3      (1,1,4)               0.0000000      UZF03                                   
     4      (1,1,5)               0.0000000      UZF04                                   
     5      (1,1,6)               0.0000000      UZF05                                   
     6      (1,1,7)               0.0000000      UZF06                                   
     7      (1,1,8)               0.0000000      UZF07                                   
     8      (1,1,9)               0.0000000      UZF08                                   
     9      (2,1,2)               0.0000000      UZF08                                   
     10     (2,1,3)               0.0000000      UZF10                                   
     11     (2,1,4)               0.0000000      UZF11                                   
     12     (2,1,5)               0.0000000      UZF12                                   
     13     (2,1,6)               0.0000000      UZF13                                   
     14     (2,1,7)               0.0000000      UZF14                                   
     15     (2,1,8)               0.0000000      UZF15                                   
     16     (2,1,9)               0.0000000      UZF16                                   
     17     (3,1,2)               0.0000000      UZF17                                   
     18     (3,1,3)               0.0000000      UZF18                                   
     19     (3,1,4)               0.0000000      UZF19                                   
     20     (3,1,5)               0.0000000      UZF20                                   
     21     (3,1,6)               0.0000000      UZF21                                   
     22     (3,1,7)               0.0000000      UZF22                                   
     23     (3,1,8)               0.0000000      UZF23                                   
     24     (3,1,9)               0.0000000      UZF24                                   
 ----------------------------------------------------------------------------------------




 UZF-GWD PACKAGE (UZF-1) FLOW RATES   PERIOD      5   STEP       10
 ----------------------------------------------------------------------------------------
   NUMBER   CELLID                    RATE       NAME                                    
 ----------------------------------------------------------------------------------------
     1      (1,1,2)               0.0000000      UZF01                                   
     2      (1,1,3)               0.0000000      UZF02                                   
     3      (1,1,4)               0.0000000      UZF03                                   
     4      (1,1,5)               0.0000000      UZF04                                   
     5      (1,1,6)               0.0000000      UZF05                                   
     6      (1,1,7)               0.0000000      UZF06                                   
     7      (1,1,8)               0.0000000      UZF07                                   
     8      (1,1,9)               0.0000000      UZF08                                   
     9      (2,1,2)               0.0000000      UZF08                                   
     10     (2,1,3)               0.0000000      UZF10                                   
     11     (2,1,4)               0.0000000      UZF11                                   
     12     (2,1,5)               0.0000000      UZF12                                   
     13     (2,1,6)               0.0000000      UZF13                                   
     14     (2,1,7)               0.0000000      UZF14                                   
     15     (2,1,8)               0.0000000      UZF15                                   
     16     (2,1,9)               0.0000000      UZF16                                   
     17     (3,1,2)               0.0000000      UZF17                                   
     18     (3,1,3)               0.0000000      UZF18                                   
     19     (3,1,4)               0.0000000      UZF19                                   
     20     (3,1,5)               0.0000000      UZF20                                   
     21     (3,1,6)               0.0000000      UZF21                                   
     22     (3,1,7)               0.0000000      UZF22                                   
     23     (3,1,8)               0.0000000      UZF23                                   
     24     (3,1,9)               0.0000000      UZF24                                   
 ----------------------------------------------------------------------------------------




 UZF-GWET PACKAGE (UZF-1) FLOW RATES   PERIOD      5   STEP       10
 ----------------------------------------------------------------------------------------
   NUMBER   CELLID                    RATE       NAME                                    
 ----------------------------------------------------------------------------------------
     1      (1,1,2)               0.0000000      UZF01                                   
     2      (1,1,3)               0.0000000      UZF02                                   
     3      (1,1,4)               0.0000000      UZF03                                   
     4      (1,1,5)               0.0000000      UZF04                                   
     5      (1,1,6)               0.0000000      UZF05                                   
     6      (1,1,7)               0.0000000      UZF06                                   
     7      (1,1,8)               0.0000000      UZF07                                   
     8      (1,1,9)               0.0000000      UZF08                                   
     9      (2,1,2)               0.0000000      UZF08                                   
     10     (2,1,3)               0.0000000      UZF10                                   
     11     (2,1,4)               0.0000000      UZF11                                   
     12     (2,1,5)               0.0000000      UZF12                                   
     13     (2,1,6)               0.0000000      UZF13                                   
     14     (2,1,7)               0.0000000      UZF14                                   
     15     (2,1,8)               0.0000000      UZF15                                   
     16     (2,1,9)               0.0000000      UZF16                                   
     17     (3,1,2)               0.0000000      UZF17                                   
     18     (3,1,3)               0.0000000      UZF18                                   
     19     (3,1,4)               0.0000000      UZF19                                   
     20     (3,1,5)               0.0000000      UZF20                                   
     21     (3,1,6)               0.0000000      UZF21                                   
     22     (3,1,7)               0.0000000      UZF22                                   
     23     (3,1,8)               0.0000000      UZF23                                   
     24     (3,1,9)               0.0000000      UZF24                                   
 ----------------------------------------------------------------------------------------




 UZF-1 PACKAGE - SUMMARY OF FLOWS FOR EACH CONTROL VOLUME   PERIOD      5   STEP       10
 ----------------------------------------------------------------------------------------------------------------------------------------------------
                                                                                                                                           PERCENT   
   NUMBER   CELLID                  INFLOW      OUTFLOW        GWF      INFILTRATION   REJ INF        UZET       STORAGE      IN - OUT    DIFFERENCE 
 ----------------------------------------------------------------------------------------------------------------------------------------------------
     1      (1,1,2)               0.0000      -1.1760       0.0000       0.0000       0.0000       0.0000       1.1760       1.96509E-13  1.67096E-11
     2      (1,1,3)               0.0000      -1.1760       0.0000       0.0000       0.0000       0.0000       1.1760       1.96509E-13  1.67096E-11
     3      (1,1,4)               0.0000      -1.1760       0.0000       0.0000       0.0000       0.0000       1.1760       1.96509E-13  1.67096E-11
     4      (1,1,5)               0.0000      -1.1760       0.0000       0.0000       0.0000       0.0000       1.1760       1.96509E-13  1.67096E-11
     5      (1,1,6)               0.0000      -1.1760       0.0000       0.0000       0.0000       0.0000       1.1760       1.96509E-13  1.67096E-11
     6      (1,1,7)               0.0000      -1.1760       0.0000       0.0000       0.0000       0.0000       1.1760       1.96509E-13  1.67096E-11
     7      (1,1,8)               0.0000      -1.1760       0.0000       0.0000       0.0000       0.0000       1.1760       1.96509E-13  1.67096E-11
     8      (1,1,9)               0.0000      -1.1760       0.0000       0.0000       0.0000       0.0000       1.1760       1.96509E-13  1.67096E-11
     9      (2,1,2)               1.1760      -19.108       0.0000       0.0000       0.0000      -6.03716E-02  17.993       1.24744E-04  6.50778E-04
     10     (2,1,3)               1.1760      -19.108       0.0000       0.0000       0.0000      -6.03716E-02  17.993       1.24744E-04  6.50778E-04
     11     (2,1,4)               1.1760      -19.108       0.0000       0.0000       0.0000      -6.03716E-02  17.993       1.24744E-04  6.50778E-04
     12     (2,1,5)               1.1760      -19.108       0.0000       0.0000       0.0000      -6.03716E-02  17.993       1.24744E-04  6.50778E-04
     13     (2,1,6)               1.1760      -19.108       0.0000       0.0000       0.0000      -6.03716E-02  17.993       1.24744E-04  6.50778E-04
     14     (2,1,7)               1.1760      -19.108       0.0000       0.0000       0.0000      -6.03716E-02  17.993       1.24744E-04  6.50778E-04
     15     (2,1,8)               1.1760      -19.108       0.0000       0.0000       0.0000      -6.03716E-02  17.993       1.24744E-04  6.50778E-04
     16     (2,1,9)               1.1760      -19.108       0.0000       0.0000       0.0000      -6.03716E-02  17.993       1.24744E-04  6.50778E-04
     17     (3,1,2)               19.108       0.0000       0.0000       0.0000       0.0000       0.0000      -19.108       2.16806E-06  1.13463E-05
     18     (3,1,3)               19.108       0.0000       0.0000       0.0000       0.0000       0.0000      -19.108       2.16806E-06  1.13463E-05
     19     (3,1,4)               19.108       0.0000       0.0000       0.0000       0.0000       0.0000      -19.108       2.16806E-06  1.13463E-05
     20     (3,1,5)               19.108       0.0000       0.0000       0.0000       0.0000       0.0000      -19.108       2.16806E-06  1.13463E-05
     21     (3,1,6)               19.108       0.0000       0.0000       0.0000       0.0000       0.0000      -19.108       2.16806E-06  1.13463E-05
     22     (3,1,7)               19.108       0.0000       0.0000       0.0000       0.0000       0.0000      -19.108       2.16806E-06  1.13463E-05
     23     (3,1,8)               19.108       0.0000       0.0000       0.0000       0.0000       0.0000      -19.108       2.16806E-06  1.13463E-05
     24     (3,1,9)               19.108       0.0000       0.0000       0.0000       0.0000       0.0000      -19.108       2.16806E-06  1.13463E-05
 ----------------------------------------------------------------------------------------------------------------------------------------------------


1
  HEAD IN LAYER   1 AT END OF TIME STEP  10 IN STRESS PERIOD    5
  ---------------------------------------------------------------------------

            1           2           3           4           5           6           7           8           9          10
 ........................................................................................................................
   1   -25.00      -25.00      -25.00      -25.00      -25.00      -25.00      -25.00      -25.00      -25.00      -25.00    
1
  HEAD IN LAYER   2 AT END OF TIME STEP  10 IN STRESS PERIOD    5
  ---------------------------------------------------------------------------

            1           2           3           4           5           6           7           8           9          10
 ........................................................................................................................
   1   -25.00      -25.00      -25.00      -25.00      -25.00      -25.00      -25.00      -25.00      -25.00      -25.00    
1
  HEAD IN LAYER   3 AT END OF TIME STEP  10 IN STRESS PERIOD    5
  ---------------------------------------------------------------------------

            1           2           3           4           5           6           7           8           9          10
 ........................................................................................................................
   1   -25.00      -25.00      -25.00      -25.00      -25.00      -25.00      -25.00      -25.00      -25.00      -25.00    

 HEAD WILL BE SAVED ON UNIT 1022 AT END OF TIME STEP   10, STRESS PERIOD    5


  UZF-1 BUDGET FOR ENTIRE MODEL AT END OF TIME STEP   10, STRESS PERIOD   5
  ------------------------------------------------------------------------------

     CUMULATIVE UZF-1      L**3       RATES FOR THIS TIME STEP      L**3/T
     ------------------                 ------------------------

           IN:                                      IN:
           ---                                      ---
                 GWF =           0.0000                   GWF =           0.0000
        INFILTRATION =      480000.0000          INFILTRATION =           0.0000
             REJ-INF =           0.0000               REJ-INF =           0.0000
                UZET =           0.0000                  UZET =           0.0000
             STORAGE =      353010.9001               STORAGE =         153.3487

            TOTAL IN =      833010.9001              TOTAL IN =         153.3487

          OUT:                                     OUT:
          ----                                     ----
                 GWF =           0.0000                   GWF =           0.0000
        INFILTRATION =           0.0000          INFILTRATION =           0.0000
             REJ-INF =           0.0000               REJ-INF =           0.0000
                UZET =         503.7147                  UZET =           0.4830
             STORAGE =      832449.8698               STORAGE =         152.8647

           TOTAL OUT =      832953.5846             TOTAL OUT =         153.3477

            IN - OUT =          57.3155              IN - OUT =       1.0153E-03

 PERCENT DISCREPANCY =           0.01     PERCENT DISCREPANCY =           0.00



  VOLUME BUDGET FOR ENTIRE MODEL AT END OF TIME STEP   10, STRESS PERIOD   5
  ---------------------------------------------------------------------------------------------------

     CUMULATIVE VOLUME      L**3       RATES FOR THIS TIME STEP      L**3/T          PACKAGE NAME    
     ------------------                 ------------------------                     ----------------

           IN:                                      IN:
           ---                                      ---
              STO-SS =           0.0000                STO-SS =           0.0000     STORAGE         
              STO-SY =           0.0000                STO-SY =           0.0000     STORAGE         
                 CHD =           0.0000                   CHD =           0.0000     CHD-1           
           UZF-GWRCH =           0.0000             UZF-GWRCH =           0.0000     UZF-1           
             UZF-GWD =           0.0000               UZF-GWD =           0.0000     UZF-1           
            UZF-GWET =           0.0000              UZF-GWET =           0.0000     UZF-1           

            TOTAL IN =           0.0000              TOTAL IN =           0.0000

          OUT:                                     OUT:
          ----                                     ----
              STO-SS =           0.0000                STO-SS =           0.0000     STORAGE         
              STO-SY =           0.0000                STO-SY =           0.0000     STORAGE         
                 CHD =           0.0000                   CHD =           0.0000     CHD-1           
           UZF-GWRCH =           0.0000             UZF-GWRCH =           0.0000     UZF-1           
             UZF-GWD =           0.0000               UZF-GWD =           0.0000     UZF-1           
            UZF-GWET =           0.0000              UZF-GWET =           0.0000     UZF-1           

           TOTAL OUT =           0.0000             TOTAL OUT =           0.0000

            IN - OUT =           0.0000              IN - OUT =           0.0000

 PERCENT DISCREPANCY =           0.00     PERCENT DISCREPANCY =           0.00




         TIME SUMMARY AT END OF TIME STEP   10 IN STRESS PERIOD    5
                    SECONDS     MINUTES      HOURS       DAYS        YEARS
                    -----------------------------------------------------------
   TIME STEP LENGTH 3.45600E+06  57600.      960.00      40.000     0.10951    
 STRESS PERIOD TIME 3.45600E+07 5.76000E+05  9600.0      400.00      1.0951    
         TOTAL TIME 8.29440E+07 1.38240E+06  23040.      960.00      2.6283    


end timestep


start timestep kper="5" kstp="11" mode="normal"

 UBDSV1 SAVING     FLOW-JA-FACE ON UNIT   1020 AT TIME STEP     11, STRESS PERIOD      5
 UBDSV06 SAVING     FLOW-JA-FACE IN MODEL GWF_1            PACKAGE UZF-1           CONNECTED TO MODEL GWF_1            PACKAGE UZF-1            ON UNIT   1014 AT TIME STEP     11, STRESS PERIOD      5
 UBDSV06 SAVING              GWF IN MODEL GWF_1            PACKAGE UZF-1           CONNECTED TO MODEL GWF_1            PACKAGE GWF_1            ON UNIT   1014 AT TIME STEP     11, STRESS PERIOD      5
 UBDSV06 SAVING     INFILTRATION IN MODEL GWF_1            PACKAGE UZF-1           CONNECTED TO MODEL GWF_1            PACKAGE UZF-1            ON UNIT   1014 AT TIME STEP     11, STRESS PERIOD      5
 UBDSV06 SAVING          REJ-INF IN MODEL GWF_1            PACKAGE UZF-1           CONNECTED TO MODEL GWF_1            PACKAGE UZF-1            ON UNIT   1014 AT TIME STEP     11, STRESS PERIOD      5
 UBDSV06 SAVING             UZET IN MODEL GWF_1            PACKAGE UZF-1           CONNECTED TO MODEL GWF_1            PACKAGE UZF-1            ON UNIT   1014 AT TIME STEP     11, STRESS PERIOD      5
 UBDSV06 SAVING          STORAGE IN MODEL GWF_1            PACKAGE UZF-1           CONNECTED TO MODEL GWF_1            PACKAGE UZF-1            ON UNIT   1014 AT TIME STEP     11, STRESS PERIOD      5

 CHD PACKAGE (CHD-1) FLOW RATES   PERIOD      5   STEP       11
 -----------------------------------------------
   NUMBER   CELLID                    RATE      
 -----------------------------------------------
     1      (3,1,1)               0.0000000     
     2      (3,1,10)              0.0000000     
 -----------------------------------------------




 UZF-GWRCH PACKAGE (UZF-1) FLOW RATES   PERIOD      5   STEP       11
 ----------------------------------------------------------------------------------------
   NUMBER   CELLID                    RATE       NAME                                    
 ----------------------------------------------------------------------------------------
     1      (1,1,2)               0.0000000      UZF01                                   
     2      (1,1,3)               0.0000000      UZF02                                   
     3      (1,1,4)               0.0000000      UZF03                                   
     4      (1,1,5)               0.0000000      UZF04                                   
     5      (1,1,6)               0.0000000      UZF05                                   
     6      (1,1,7)               0.0000000      UZF06                                   
     7      (1,1,8)               0.0000000      UZF07                                   
     8      (1,1,9)               0.0000000      UZF08                                   
     9      (2,1,2)               0.0000000      UZF08                                   
     10     (2,1,3)               0.0000000      UZF10                                   
     11     (2,1,4)               0.0000000      UZF11                                   
     12     (2,1,5)               0.0000000      UZF12                                   
     13     (2,1,6)               0.0000000      UZF13                                   
     14     (2,1,7)               0.0000000      UZF14                                   
     15     (2,1,8)               0.0000000      UZF15                                   
     16     (2,1,9)               0.0000000      UZF16                                   
     17     (3,1,2)               0.0000000      UZF17                                   
     18     (3,1,3)               0.0000000      UZF18                                   
     19     (3,1,4)               0.0000000      UZF19                                   
     20     (3,1,5)               0.0000000      UZF20                                   
     21     (3,1,6)               0.0000000      UZF21                                   
     22     (3,1,7)               0.0000000      UZF22                                   
     23     (3,1,8)               0.0000000      UZF23                                   
     24     (3,1,9)               0.0000000      UZF24                                   
 ----------------------------------------------------------------------------------------




 UZF-GWD PACKAGE (UZF-1) FLOW RATES   PERIOD      5   STEP       11
 ----------------------------------------------------------------------------------------
   NUMBER   CELLID                    RATE       NAME                                    
 ----------------------------------------------------------------------------------------
     1      (1,1,2)               0.0000000      UZF01                                   
     2      (1,1,3)               0.0000000      UZF02                                   
     3      (1,1,4)               0.0000000      UZF03                                   
     4      (1,1,5)               0.0000000      UZF04                                   
     5      (1,1,6)               0.0000000      UZF05                                   
     6      (1,1,7)               0.0000000      UZF06                                   
     7      (1,1,8)               0.0000000      UZF07                                   
     8      (1,1,9)               0.0000000      UZF08                                   
     9      (2,1,2)               0.0000000      UZF08                                   
     10     (2,1,3)               0.0000000      UZF10                                   
     11     (2,1,4)               0.0000000      UZF11                                   
     12     (2,1,5)               0.0000000      UZF12                                   
     13     (2,1,6)               0.0000000      UZF13                                   
     14     (2,1,7)               0.0000000      UZF14                                   
     15     (2,1,8)               0.0000000      UZF15                                   
     16     (2,1,9)               0.0000000      UZF16                                   
     17     (3,1,2)               0.0000000      UZF17                                   
     18     (3,1,3)               0.0000000      UZF18                                   
     19     (3,1,4)               0.0000000      UZF19                                   
     20     (3,1,5)               0.0000000      UZF20                                   
     21     (3,1,6)               0.0000000      UZF21                                   
     22     (3,1,7)               0.0000000      UZF22                                   
     23     (3,1,8)               0.0000000      UZF23                                   
     24     (3,1,9)               0.0000000      UZF24                                   
 ----------------------------------------------------------------------------------------




 UZF-GWET PACKAGE (UZF-1) FLOW RATES   PERIOD      5   STEP       11
 ----------------------------------------------------------------------------------------
   NUMBER   CELLID                    RATE       NAME                                    
 ----------------------------------------------------------------------------------------
     1      (1,1,2)               0.0000000      UZF01                                   
     2      (1,1,3)               0.0000000      UZF02                                   
     3      (1,1,4)               0.0000000      UZF03                                   
     4      (1,1,5)               0.0000000      UZF04                                   
     5      (1,1,6)               0.0000000      UZF05                                   
     6      (1,1,7)               0.0000000      UZF06                                   
     7      (1,1,8)               0.0000000      UZF07                                   
     8      (1,1,9)               0.0000000      UZF08                                   
     9      (2,1,2)               0.0000000      UZF08                                   
     10     (2,1,3)               0.0000000      UZF10                                   
     11     (2,1,4)               0.0000000      UZF11                                   
     12     (2,1,5)               0.0000000      UZF12                                   
     13     (2,1,6)               0.0000000      UZF13                                   
     14     (2,1,7)               0.0000000      UZF14                                   
     15     (2,1,8)               0.0000000      UZF15                                   
     16     (2,1,9)               0.0000000      UZF16                                   
     17     (3,1,2)               0.0000000      UZF17                                   
     18     (3,1,3)               0.0000000      UZF18                                   
     19     (3,1,4)               0.0000000      UZF19                                   
     20     (3,1,5)               0.0000000      UZF20                                   
     21     (3,1,6)               0.0000000      UZF21                                   
     22     (3,1,7)               0.0000000      UZF22                                   
     23     (3,1,8)               0.0000000      UZF23                                   
     24     (3,1,9)               0.0000000      UZF24                                   
 ----------------------------------------------------------------------------------------




 UZF-1 PACKAGE - SUMMARY OF FLOWS FOR EACH CONTROL VOLUME   PERIOD      5   STEP       11
 ----------------------------------------------------------------------------------------------------------------------------------------------------
                                                                                                                                           PERCENT   
   NUMBER   CELLID                  INFLOW      OUTFLOW        GWF      INFILTRATION   REJ INF        UZET       STORAGE      IN - OUT    DIFFERENCE 
 ----------------------------------------------------------------------------------------------------------------------------------------------------
     1      (1,1,2)               0.0000      -1.1760       0.0000       0.0000       0.0000       0.0000       1.1760      -1.50324E-13 -1.27824E-11
     2      (1,1,3)               0.0000      -1.1760       0.0000       0.0000       0.0000       0.0000       1.1760      -1.50324E-13 -1.27824E-11
     3      (1,1,4)               0.0000      -1.1760       0.0000       0.0000       0.0000       0.0000       1.1760      -1.50324E-13 -1.27824E-11
     4      (1,1,5)               0.0000      -1.1760       0.0000       0.0000       0.0000       0.0000       1.1760      -1.50324E-13 -1.27824E-11
     5      (1,1,6)               0.0000      -1.1760       0.0000       0.0000       0.0000       0.0000       1.1760      -1.50324E-13 -1.27824E-11
     6      (1,1,7)               0.0000      -1.1760       0.0000       0.0000       0.0000       0.0000       1.1760      -1.50324E-13 -1.27824E-11
     7      (1,1,8)               0.0000      -1.1760       0.0000       0.0000       0.0000       0.0000       1.1760      -1.50324E-13 -1.27824E-11
     8      (1,1,9)               0.0000      -1.1760       0.0000       0.0000       0.0000       0.0000       1.1760      -1.50324E-13 -1.27824E-11
     9      (2,1,2)               1.1760      -15.249       0.0000       0.0000       0.0000      -5.93018E-02  14.133       1.38371E-04  9.03867E-04
     10     (2,1,3)               1.1760      -15.249       0.0000       0.0000       0.0000      -5.93018E-02  14.133       1.38371E-04  9.03867E-04
     11     (2,1,4)               1.1760      -15.249       0.0000       0.0000       0.0000      -5.93018E-02  14.133       1.38371E-04  9.03867E-04
     12     (2,1,5)               1.1760      -15.249       0.0000       0.0000       0.0000      -5.93018E-02  14.133       1.38371E-04  9.03867E-04
     13     (2,1,6)               1.1760      -15.249       0.0000       0.0000       0.0000      -5.93018E-02  14.133       1.38371E-04  9.03867E-04
     14     (2,1,7)               1.1760      -15.249       0.0000       0.0000       0.0000      -5.93018E-02  14.133       1.38371E-04  9.03867E-04
     15     (2,1,8)               1.1760      -15.249       0.0000       0.0000       0.0000      -5.93018E-02  14.133       1.38371E-04  9.03867E-04
     16     (2,1,9)               1.1760      -15.249       0.0000       0.0000       0.0000      -5.93018E-02  14.133       1.38371E-04  9.03867E-04
     17     (3,1,2)               15.249       0.0000       0.0000       0.0000       0.0000       0.0000      -15.249       1.85333E-06  1.21535E-05
     18     (3,1,3)               15.249       0.0000       0.0000       0.0000       0.0000       0.0000      -15.249       1.85333E-06  1.21535E-05
     19     (3,1,4)               15.249       0.0000       0.0000       0.0000       0.0000       0.0000      -15.249       1.85333E-06  1.21535E-05
     20     (3,1,5)               15.249       0.0000       0.0000       0.0000       0.0000       0.0000      -15.249       1.85333E-06  1.21535E-05
     21     (3,1,6)               15.249       0.0000       0.0000       0.0000       0.0000       0.0000      -15.249       1.85333E-06  1.21535E-05
     22     (3,1,7)               15.249       0.0000       0.0000       0.0000       0.0000       0.0000      -15.249       1.85333E-06  1.21535E-05
     23     (3,1,8)               15.249       0.0000       0.0000       0.0000       0.0000       0.0000      -15.249       1.85333E-06  1.21535E-05
     24     (3,1,9)               15.249       0.0000       0.0000       0.0000       0.0000       0.0000      -15.249       1.85333E-06  1.21535E-05
 ----------------------------------------------------------------------------------------------------------------------------------------------------


1
  HEAD IN LAYER   1 AT END OF TIME STEP  11 IN STRESS PERIOD    5
  ---------------------------------------------------------------------------

            1           2           3           4           5           6           7           8           9          10
 ........................................................................................................................
   1   -25.00      -25.00      -25.00      -25.00      -25.00      -25.00      -25.00      -25.00      -25.00      -25.00    
1
  HEAD IN LAYER   2 AT END OF TIME STEP  11 IN STRESS PERIOD    5
  ---------------------------------------------------------------------------

            1           2           3           4           5           6           7           8           9          10
 ........................................................................................................................
   1   -25.00      -25.00      -25.00      -25.00      -25.00      -25.00      -25.00      -25.00      -25.00      -25.00    
1
  HEAD IN LAYER   3 AT END OF TIME STEP  11 IN STRESS PERIOD    5
  ---------------------------------------------------------------------------

            1           2           3           4           5           6           7           8           9          10
 ........................................................................................................................
   1   -25.00      -25.00      -25.00      -25.00      -25.00      -25.00      -25.00      -25.00      -25.00      -25.00    

 HEAD WILL BE SAVED ON UNIT 1022 AT END OF TIME STEP   11, STRESS PERIOD    5


  UZF-1 BUDGET FOR ENTIRE MODEL AT END OF TIME STEP   11, STRESS PERIOD   5
  ------------------------------------------------------------------------------

     CUMULATIVE UZF-1      L**3       RATES FOR THIS TIME STEP      L**3/T
     ------------------                 ------------------------

           IN:                                      IN:
           ---                                      ---
                 GWF =           0.0000                   GWF =           0.0000
        INFILTRATION =      480000.0000          INFILTRATION =           0.0000
             REJ-INF =           0.0000               REJ-INF =           0.0000
                UZET =           0.0000                  UZET =           0.0000
             STORAGE =      357909.7136               STORAGE =         122.4703

            TOTAL IN =      837909.7136              TOTAL IN =         122.4703

          OUT:                                     OUT:
          ----                                     ----
                 GWF =           0.0000                   GWF =           0.0000
        INFILTRATION =           0.0000          INFILTRATION =           0.0000
             REJ-INF =           0.0000               REJ-INF =           0.0000
                UZET =         522.6913                  UZET =           0.4744
             STORAGE =      837329.6619               STORAGE =         121.9948

           TOTAL OUT =      837852.3532             TOTAL OUT =         122.4692

            IN - OUT =          57.3604              IN - OUT =       1.1218E-03

 PERCENT DISCREPANCY =           0.01     PERCENT DISCREPANCY =           0.00



  VOLUME BUDGET FOR ENTIRE MODEL AT END OF TIME STEP   11, STRESS PERIOD   5
  ---------------------------------------------------------------------------------------------------

     CUMULATIVE VOLUME      L**3       RATES FOR THIS TIME STEP      L**3/T          PACKAGE NAME    
     ------------------                 ------------------------                     ----------------

           IN:                                      IN:
           ---                                      ---
              STO-SS =           0.0000                STO-SS =           0.0000     STORAGE         
              STO-SY =           0.0000                STO-SY =           0.0000     STORAGE         
                 CHD =           0.0000                   CHD =           0.0000     CHD-1           
           UZF-GWRCH =           0.0000             UZF-GWRCH =           0.0000     UZF-1           
             UZF-GWD =           0.0000               UZF-GWD =           0.0000     UZF-1           
            UZF-GWET =           0.0000              UZF-GWET =           0.0000     UZF-1           

            TOTAL IN =           0.0000              TOTAL IN =           0.0000

          OUT:                                     OUT:
          ----                                     ----
              STO-SS =           0.0000                STO-SS =           0.0000     STORAGE         
              STO-SY =           0.0000                STO-SY =           0.0000     STORAGE         
                 CHD =           0.0000                   CHD =           0.0000     CHD-1           
           UZF-GWRCH =           0.0000             UZF-GWRCH =           0.0000     UZF-1           
             UZF-GWD =           0.0000               UZF-GWD =           0.0000     UZF-1           
            UZF-GWET =           0.0000              UZF-GWET =           0.0000     UZF-1           

           TOTAL OUT =           0.0000             TOTAL OUT =           0.0000

            IN - OUT =           0.0000              IN - OUT =           0.0000

 PERCENT DISCREPANCY =           0.00     PERCENT DISCREPANCY =           0.00




         TIME SUMMARY AT END OF TIME STEP   11 IN STRESS PERIOD    5
                    SECONDS     MINUTES      HOURS       DAYS        YEARS
                    -----------------------------------------------------------
   TIME STEP LENGTH 3.45600E+06  57600.      960.00      40.000     0.10951    
 STRESS PERIOD TIME 3.80160E+07 6.33600E+05  10560.      440.00      1.2047    
         TOTAL TIME 8.64000E+07 1.44000E+06  24000.      1000.0      2.7379    


end timestep


start timestep kper="5" kstp="12" mode="normal"

 UBDSV1 SAVING     FLOW-JA-FACE ON UNIT   1020 AT TIME STEP     12, STRESS PERIOD      5
 UBDSV06 SAVING     FLOW-JA-FACE IN MODEL GWF_1            PACKAGE UZF-1           CONNECTED TO MODEL GWF_1            PACKAGE UZF-1            ON UNIT   1014 AT TIME STEP     12, STRESS PERIOD      5
 UBDSV06 SAVING              GWF IN MODEL GWF_1            PACKAGE UZF-1           CONNECTED TO MODEL GWF_1            PACKAGE GWF_1            ON UNIT   1014 AT TIME STEP     12, STRESS PERIOD      5
 UBDSV06 SAVING     INFILTRATION IN MODEL GWF_1            PACKAGE UZF-1           CONNECTED TO MODEL GWF_1            PACKAGE UZF-1            ON UNIT   1014 AT TIME STEP     12, STRESS PERIOD      5
 UBDSV06 SAVING          REJ-INF IN MODEL GWF_1            PACKAGE UZF-1           CONNECTED TO MODEL GWF_1            PACKAGE UZF-1            ON UNIT   1014 AT TIME STEP     12, STRESS PERIOD      5
 UBDSV06 SAVING             UZET IN MODEL GWF_1            PACKAGE UZF-1           CONNECTED TO MODEL GWF_1            PACKAGE UZF-1            ON UNIT   1014 AT TIME STEP     12, STRESS PERIOD      5
 UBDSV06 SAVING          STORAGE IN MODEL GWF_1            PACKAGE UZF-1           CONNECTED TO MODEL GWF_1            PACKAGE UZF-1            ON UNIT   1014 AT TIME STEP     12, STRESS PERIOD      5

 CHD PACKAGE (CHD-1) FLOW RATES   PERIOD      5   STEP       12
 -----------------------------------------------
   NUMBER   CELLID                    RATE      
 -----------------------------------------------
     1      (3,1,1)               0.0000000     
     2      (3,1,10)              0.0000000     
 -----------------------------------------------




 UZF-GWRCH PACKAGE (UZF-1) FLOW RATES   PERIOD      5   STEP       12
 ----------------------------------------------------------------------------------------
   NUMBER   CELLID                    RATE       NAME                                    
 ----------------------------------------------------------------------------------------
     1      (1,1,2)               0.0000000      UZF01                                   
     2      (1,1,3)               0.0000000      UZF02                                   
     3      (1,1,4)               0.0000000      UZF03                                   
     4      (1,1,5)               0.0000000      UZF04                                   
     5      (1,1,6)               0.0000000      UZF05                                   
     6      (1,1,7)               0.0000000      UZF06                                   
     7      (1,1,8)               0.0000000      UZF07                                   
     8      (1,1,9)               0.0000000      UZF08                                   
     9      (2,1,2)               0.0000000      UZF08                                   
     10     (2,1,3)               0.0000000      UZF10                                   
     11     (2,1,4)               0.0000000      UZF11                                   
     12     (2,1,5)               0.0000000      UZF12                                   
     13     (2,1,6)               0.0000000      UZF13                                   
     14     (2,1,7)               0.0000000      UZF14                                   
     15     (2,1,8)               0.0000000      UZF15                                   
     16     (2,1,9)               0.0000000      UZF16                                   
     17     (3,1,2)               0.0000000      UZF17                                   
     18     (3,1,3)               0.0000000      UZF18                                   
     19     (3,1,4)               0.0000000      UZF19                                   
     20     (3,1,5)               0.0000000      UZF20                                   
     21     (3,1,6)               0.0000000      UZF21                                   
     22     (3,1,7)               0.0000000      UZF22                                   
     23     (3,1,8)               0.0000000      UZF23                                   
     24     (3,1,9)               0.0000000      UZF24                                   
 ----------------------------------------------------------------------------------------




 UZF-GWD PACKAGE (UZF-1) FLOW RATES   PERIOD      5   STEP       12
 ----------------------------------------------------------------------------------------
   NUMBER   CELLID                    RATE       NAME                                    
 ----------------------------------------------------------------------------------------
     1      (1,1,2)               0.0000000      UZF01                                   
     2      (1,1,3)               0.0000000      UZF02                                   
     3      (1,1,4)               0.0000000      UZF03                                   
     4      (1,1,5)               0.0000000      UZF04                                   
     5      (1,1,6)               0.0000000      UZF05                                   
     6      (1,1,7)               0.0000000      UZF06                                   
     7      (1,1,8)               0.0000000      UZF07                                   
     8      (1,1,9)               0.0000000      UZF08                                   
     9      (2,1,2)               0.0000000      UZF08                                   
     10     (2,1,3)               0.0000000      UZF10                                   
     11     (2,1,4)               0.0000000      UZF11                                   
     12     (2,1,5)               0.0000000      UZF12                                   
     13     (2,1,6)               0.0000000      UZF13                                   
     14     (2,1,7)               0.0000000      UZF14                                   
     15     (2,1,8)               0.0000000      UZF15                                   
     16     (2,1,9)               0.0000000      UZF16                                   
     17     (3,1,2)               0.0000000      UZF17                                   
     18     (3,1,3)               0.0000000      UZF18                                   
     19     (3,1,4)               0.0000000      UZF19                                   
     20     (3,1,5)               0.0000000      UZF20                                   
     21     (3,1,6)               0.0000000      UZF21                                   
     22     (3,1,7)               0.0000000      UZF22                                   
     23     (3,1,8)               0.0000000      UZF23                                   
     24     (3,1,9)               0.0000000      UZF24                                   
 ----------------------------------------------------------------------------------------




 UZF-GWET PACKAGE (UZF-1) FLOW RATES   PERIOD      5   STEP       12
 ----------------------------------------------------------------------------------------
   NUMBER   CELLID                    RATE       NAME                                    
 ----------------------------------------------------------------------------------------
     1      (1,1,2)               0.0000000      UZF01                                   
     2      (1,1,3)               0.0000000      UZF02                                   
     3      (1,1,4)               0.0000000      UZF03                                   
     4      (1,1,5)               0.0000000      UZF04                                   
     5      (1,1,6)               0.0000000      UZF05                                   
     6      (1,1,7)               0.0000000      UZF06                                   
     7      (1,1,8)               0.0000000      UZF07                                   
     8      (1,1,9)               0.0000000      UZF08                                   
     9      (2,1,2)               0.0000000      UZF08                                   
     10     (2,1,3)               0.0000000      UZF10                                   
     11     (2,1,4)               0.0000000      UZF11                                   
     12     (2,1,5)               0.0000000      UZF12                                   
     13     (2,1,6)               0.0000000      UZF13                                   
     14     (2,1,7)               0.0000000      UZF14                                   
     15     (2,1,8)               0.0000000      UZF15                                   
     16     (2,1,9)               0.0000000      UZF16                                   
     17     (3,1,2)               0.0000000      UZF17                                   
     18     (3,1,3)               0.0000000      UZF18                                   
     19     (3,1,4)               0.0000000      UZF19                                   
     20     (3,1,5)               0.0000000      UZF20                                   
     21     (3,1,6)               0.0000000      UZF21                                   
     22     (3,1,7)               0.0000000      UZF22                                   
     23     (3,1,8)               0.0000000      UZF23                                   
     24     (3,1,9)               0.0000000      UZF24                                   
 ----------------------------------------------------------------------------------------




 UZF-1 PACKAGE - SUMMARY OF FLOWS FOR EACH CONTROL VOLUME   PERIOD      5   STEP       12
 ----------------------------------------------------------------------------------------------------------------------------------------------------
                                                                                                                                           PERCENT   
   NUMBER   CELLID                  INFLOW      OUTFLOW        GWF      INFILTRATION   REJ INF        UZET       STORAGE      IN - OUT    DIFFERENCE 
 ----------------------------------------------------------------------------------------------------------------------------------------------------
     1      (1,1,2)               0.0000      -1.1760       0.0000       0.0000       0.0000       0.0000       1.1760       2.33147E-14  1.98249E-12
     2      (1,1,3)               0.0000      -1.1760       0.0000       0.0000       0.0000       0.0000       1.1760       2.33147E-14  1.98249E-12
     3      (1,1,4)               0.0000      -1.1760       0.0000       0.0000       0.0000       0.0000       1.1760       2.33147E-14  1.98249E-12
     4      (1,1,5)               0.0000      -1.1760       0.0000       0.0000       0.0000       0.0000       1.1760       2.33147E-14  1.98249E-12
     5      (1,1,6)               0.0000      -1.1760       0.0000       0.0000       0.0000       0.0000       1.1760       2.33147E-14  1.98249E-12
     6      (1,1,7)               0.0000      -1.1760       0.0000       0.0000       0.0000       0.0000       1.1760       2.33147E-14  1.98249E-12
     7      (1,1,8)               0.0000      -1.1760       0.0000       0.0000       0.0000       0.0000       1.1760       2.33147E-14  1.98249E-12
     8      (1,1,9)               0.0000      -1.1760       0.0000       0.0000       0.0000       0.0000       1.1760       2.33147E-14  1.98249E-12
     9      (2,1,2)               1.1760      -15.245       0.0000       0.0000       0.0000      -5.82320E-02  14.128       1.51567E-04  9.90409E-04
     10     (2,1,3)               1.1760      -15.245       0.0000       0.0000       0.0000      -5.82320E-02  14.128       1.51567E-04  9.90409E-04
     11     (2,1,4)               1.1760      -15.245       0.0000       0.0000       0.0000      -5.82320E-02  14.128       1.51567E-04  9.90409E-04
     12     (2,1,5)               1.1760      -15.245       0.0000       0.0000       0.0000      -5.82320E-02  14.128       1.51567E-04  9.90409E-04
     13     (2,1,6)               1.1760      -15.245       0.0000       0.0000       0.0000      -5.82320E-02  14.128       1.51567E-04  9.90409E-04
     14     (2,1,7)               1.1760      -15.245       0.0000       0.0000       0.0000      -5.82320E-02  14.128       1.51567E-04  9.90409E-04
     15     (2,1,8)               1.1760      -15.245       0.0000       0.0000       0.0000      -5.82320E-02  14.128       1.51567E-04  9.90409E-04
     16     (2,1,9)               1.1760      -15.245       0.0000       0.0000       0.0000      -5.82320E-02  14.128       1.51567E-04  9.90409E-04
     17     (3,1,2)               15.245       0.0000       0.0000       0.0000       0.0000       0.0000      -15.245       1.82934E-06  1.19995E-05
     18     (3,1,3)               15.245       0.0000       0.0000       0.0000       0.0000       0.0000      -15.245       1.82934E-06  1.19995E-05
     19     (3,1,4)               15.245       0.0000       0.0000       0.0000       0.0000       0.0000      -15.245       1.82934E-06  1.19995E-05
     20     (3,1,5)               15.245       0.0000       0.0000       0.0000       0.0000       0.0000      -15.245       1.82934E-06  1.19995E-05
     21     (3,1,6)               15.245       0.0000       0.0000       0.0000       0.0000       0.0000      -15.245       1.82934E-06  1.19995E-05
     22     (3,1,7)               15.245       0.0000       0.0000       0.0000       0.0000       0.0000      -15.245       1.82934E-06  1.19995E-05
     23     (3,1,8)               15.245       0.0000       0.0000       0.0000       0.0000       0.0000      -15.245       1.82934E-06  1.19995E-05
     24     (3,1,9)               15.245       0.0000       0.0000       0.0000       0.0000       0.0000      -15.245       1.82934E-06  1.19995E-05
 ----------------------------------------------------------------------------------------------------------------------------------------------------


1
  HEAD IN LAYER   1 AT END OF TIME STEP  12 IN STRESS PERIOD    5
  ---------------------------------------------------------------------------

            1           2           3           4           5           6           7           8           9          10
 ........................................................................................................................
   1   -25.00      -25.00      -25.00      -25.00      -25.00      -25.00      -25.00      -25.00      -25.00      -25.00    
1
  HEAD IN LAYER   2 AT END OF TIME STEP  12 IN STRESS PERIOD    5
  ---------------------------------------------------------------------------

            1           2           3           4           5           6           7           8           9          10
 ........................................................................................................................
   1   -25.00      -25.00      -25.00      -25.00      -25.00      -25.00      -25.00      -25.00      -25.00      -25.00    
1
  HEAD IN LAYER   3 AT END OF TIME STEP  12 IN STRESS PERIOD    5
  ---------------------------------------------------------------------------

            1           2           3           4           5           6           7           8           9          10
 ........................................................................................................................
   1   -25.00      -25.00      -25.00      -25.00      -25.00      -25.00      -25.00      -25.00      -25.00      -25.00    

 HEAD WILL BE SAVED ON UNIT 1022 AT END OF TIME STEP   12, STRESS PERIOD    5


  UZF-1 BUDGET FOR ENTIRE MODEL AT END OF TIME STEP   12, STRESS PERIOD   5
  ------------------------------------------------------------------------------

     CUMULATIVE UZF-1      L**3       RATES FOR THIS TIME STEP      L**3/T
     ------------------                 ------------------------

           IN:                                      IN:
           ---                                      ---
                 GWF =           0.0000                   GWF =           0.0000
        INFILTRATION =      480000.0000          INFILTRATION =           0.0000
             REJ-INF =           0.0000               REJ-INF =           0.0000
                UZET =           0.0000                  UZET =           0.0000
             STORAGE =      362806.8609               STORAGE =         122.4287

            TOTAL IN =      842806.8609              TOTAL IN =         122.4287

          OUT:                                     OUT:
          ----                                     ----
                 GWF =           0.0000                   GWF =           0.0000
        INFILTRATION =           0.0000          INFILTRATION =           0.0000
             REJ-INF =           0.0000               REJ-INF =           0.0000
                UZET =         541.3256                  UZET =           0.4659
             STORAGE =      842208.1259               STORAGE =         121.9616

           TOTAL OUT =      842749.4514             TOTAL OUT =         122.4275

            IN - OUT =          57.4095              IN - OUT =       1.2272E-03

 PERCENT DISCREPANCY =           0.01     PERCENT DISCREPANCY =           0.00



  VOLUME BUDGET FOR ENTIRE MODEL AT END OF TIME STEP   12, STRESS PERIOD   5
  ---------------------------------------------------------------------------------------------------

     CUMULATIVE VOLUME      L**3       RATES FOR THIS TIME STEP      L**3/T          PACKAGE NAME    
     ------------------                 ------------------------                     ----------------

           IN:                                      IN:
           ---                                      ---
              STO-SS =           0.0000                STO-SS =           0.0000     STORAGE         
              STO-SY =           0.0000                STO-SY =           0.0000     STORAGE         
                 CHD =           0.0000                   CHD =           0.0000     CHD-1           
           UZF-GWRCH =           0.0000             UZF-GWRCH =           0.0000     UZF-1           
             UZF-GWD =           0.0000               UZF-GWD =           0.0000     UZF-1           
            UZF-GWET =           0.0000              UZF-GWET =           0.0000     UZF-1           

            TOTAL IN =           0.0000              TOTAL IN =           0.0000

          OUT:                                     OUT:
          ----                                     ----
              STO-SS =           0.0000                STO-SS =           0.0000     STORAGE         
              STO-SY =           0.0000                STO-SY =           0.0000     STORAGE         
                 CHD =           0.0000                   CHD =           0.0000     CHD-1           
           UZF-GWRCH =           0.0000             UZF-GWRCH =           0.0000     UZF-1           
             UZF-GWD =           0.0000               UZF-GWD =           0.0000     UZF-1           
            UZF-GWET =           0.0000              UZF-GWET =           0.0000     UZF-1           

           TOTAL OUT =           0.0000             TOTAL OUT =           0.0000

            IN - OUT =           0.0000              IN - OUT =           0.0000

 PERCENT DISCREPANCY =           0.00     PERCENT DISCREPANCY =           0.00




         TIME SUMMARY AT END OF TIME STEP   12 IN STRESS PERIOD    5
                    SECONDS     MINUTES      HOURS       DAYS        YEARS
                    -----------------------------------------------------------
   TIME STEP LENGTH 3.45600E+06  57600.      960.00      40.000     0.10951    
 STRESS PERIOD TIME 4.14720E+07 6.91200E+05  11520.      480.00      1.3142    
         TOTAL TIME 8.98560E+07 1.49760E+06  24960.      1040.0      2.8474    


end timestep


start timestep kper="5" kstp="13" mode="normal"

 UBDSV1 SAVING     FLOW-JA-FACE ON UNIT   1020 AT TIME STEP     13, STRESS PERIOD      5
 UBDSV06 SAVING     FLOW-JA-FACE IN MODEL GWF_1            PACKAGE UZF-1           CONNECTED TO MODEL GWF_1            PACKAGE UZF-1            ON UNIT   1014 AT TIME STEP     13, STRESS PERIOD      5
 UBDSV06 SAVING              GWF IN MODEL GWF_1            PACKAGE UZF-1           CONNECTED TO MODEL GWF_1            PACKAGE GWF_1            ON UNIT   1014 AT TIME STEP     13, STRESS PERIOD      5
 UBDSV06 SAVING     INFILTRATION IN MODEL GWF_1            PACKAGE UZF-1           CONNECTED TO MODEL GWF_1            PACKAGE UZF-1            ON UNIT   1014 AT TIME STEP     13, STRESS PERIOD      5
 UBDSV06 SAVING          REJ-INF IN MODEL GWF_1            PACKAGE UZF-1           CONNECTED TO MODEL GWF_1            PACKAGE UZF-1            ON UNIT   1014 AT TIME STEP     13, STRESS PERIOD      5
 UBDSV06 SAVING             UZET IN MODEL GWF_1            PACKAGE UZF-1           CONNECTED TO MODEL GWF_1            PACKAGE UZF-1            ON UNIT   1014 AT TIME STEP     13, STRESS PERIOD      5
 UBDSV06 SAVING          STORAGE IN MODEL GWF_1            PACKAGE UZF-1           CONNECTED TO MODEL GWF_1            PACKAGE UZF-1            ON UNIT   1014 AT TIME STEP     13, STRESS PERIOD      5

 CHD PACKAGE (CHD-1) FLOW RATES   PERIOD      5   STEP       13
 -----------------------------------------------
   NUMBER   CELLID                    RATE      
 -----------------------------------------------
     1      (3,1,1)               0.0000000     
     2      (3,1,10)              0.0000000     
 -----------------------------------------------




 UZF-GWRCH PACKAGE (UZF-1) FLOW RATES   PERIOD      5   STEP       13
 ----------------------------------------------------------------------------------------
   NUMBER   CELLID                    RATE       NAME                                    
 ----------------------------------------------------------------------------------------
     1      (1,1,2)               0.0000000      UZF01                                   
     2      (1,1,3)               0.0000000      UZF02                                   
     3      (1,1,4)               0.0000000      UZF03                                   
     4      (1,1,5)               0.0000000      UZF04                                   
     5      (1,1,6)               0.0000000      UZF05                                   
     6      (1,1,7)               0.0000000      UZF06                                   
     7      (1,1,8)               0.0000000      UZF07                                   
     8      (1,1,9)               0.0000000      UZF08                                   
     9      (2,1,2)               0.0000000      UZF08                                   
     10     (2,1,3)               0.0000000      UZF10                                   
     11     (2,1,4)               0.0000000      UZF11                                   
     12     (2,1,5)               0.0000000      UZF12                                   
     13     (2,1,6)               0.0000000      UZF13                                   
     14     (2,1,7)               0.0000000      UZF14                                   
     15     (2,1,8)               0.0000000      UZF15                                   
     16     (2,1,9)               0.0000000      UZF16                                   
     17     (3,1,2)               0.0000000      UZF17                                   
     18     (3,1,3)               0.0000000      UZF18                                   
     19     (3,1,4)               0.0000000      UZF19                                   
     20     (3,1,5)               0.0000000      UZF20                                   
     21     (3,1,6)               0.0000000      UZF21                                   
     22     (3,1,7)               0.0000000      UZF22                                   
     23     (3,1,8)               0.0000000      UZF23                                   
     24     (3,1,9)               0.0000000      UZF24                                   
 ----------------------------------------------------------------------------------------




 UZF-GWD PACKAGE (UZF-1) FLOW RATES   PERIOD      5   STEP       13
 ----------------------------------------------------------------------------------------
   NUMBER   CELLID                    RATE       NAME                                    
 ----------------------------------------------------------------------------------------
     1      (1,1,2)               0.0000000      UZF01                                   
     2      (1,1,3)               0.0000000      UZF02                                   
     3      (1,1,4)               0.0000000      UZF03                                   
     4      (1,1,5)               0.0000000      UZF04                                   
     5      (1,1,6)               0.0000000      UZF05                                   
     6      (1,1,7)               0.0000000      UZF06                                   
     7      (1,1,8)               0.0000000      UZF07                                   
     8      (1,1,9)               0.0000000      UZF08                                   
     9      (2,1,2)               0.0000000      UZF08                                   
     10     (2,1,3)               0.0000000      UZF10                                   
     11     (2,1,4)               0.0000000      UZF11                                   
     12     (2,1,5)               0.0000000      UZF12                                   
     13     (2,1,6)               0.0000000      UZF13                                   
     14     (2,1,7)               0.0000000      UZF14                                   
     15     (2,1,8)               0.0000000      UZF15                                   
     16     (2,1,9)               0.0000000      UZF16                                   
     17     (3,1,2)               0.0000000      UZF17                                   
     18     (3,1,3)               0.0000000      UZF18                                   
     19     (3,1,4)               0.0000000      UZF19                                   
     20     (3,1,5)               0.0000000      UZF20                                   
     21     (3,1,6)               0.0000000      UZF21                                   
     22     (3,1,7)               0.0000000      UZF22                                   
     23     (3,1,8)               0.0000000      UZF23                                   
     24     (3,1,9)               0.0000000      UZF24                                   
 ----------------------------------------------------------------------------------------




 UZF-GWET PACKAGE (UZF-1) FLOW RATES   PERIOD      5   STEP       13
 ----------------------------------------------------------------------------------------
   NUMBER   CELLID                    RATE       NAME                                    
 ----------------------------------------------------------------------------------------
     1      (1,1,2)               0.0000000      UZF01                                   
     2      (1,1,3)               0.0000000      UZF02                                   
     3      (1,1,4)               0.0000000      UZF03                                   
     4      (1,1,5)               0.0000000      UZF04                                   
     5      (1,1,6)               0.0000000      UZF05                                   
     6      (1,1,7)               0.0000000      UZF06                                   
     7      (1,1,8)               0.0000000      UZF07                                   
     8      (1,1,9)               0.0000000      UZF08                                   
     9      (2,1,2)               0.0000000      UZF08                                   
     10     (2,1,3)               0.0000000      UZF10                                   
     11     (2,1,4)               0.0000000      UZF11                                   
     12     (2,1,5)               0.0000000      UZF12                                   
     13     (2,1,6)               0.0000000      UZF13                                   
     14     (2,1,7)               0.0000000      UZF14                                   
     15     (2,1,8)               0.0000000      UZF15                                   
     16     (2,1,9)               0.0000000      UZF16                                   
     17     (3,1,2)               0.0000000      UZF17                                   
     18     (3,1,3)               0.0000000      UZF18                                   
     19     (3,1,4)               0.0000000      UZF19                                   
     20     (3,1,5)               0.0000000      UZF20                                   
     21     (3,1,6)               0.0000000      UZF21                                   
     22     (3,1,7)               0.0000000      UZF22                                   
     23     (3,1,8)               0.0000000      UZF23                                   
     24     (3,1,9)               0.0000000      UZF24                                   
 ----------------------------------------------------------------------------------------




 UZF-1 PACKAGE - SUMMARY OF FLOWS FOR EACH CONTROL VOLUME   PERIOD      5   STEP       13
 ----------------------------------------------------------------------------------------------------------------------------------------------------
                                                                                                                                           PERCENT   
   NUMBER   CELLID                  INFLOW      OUTFLOW        GWF      INFILTRATION   REJ INF        UZET       STORAGE      IN - OUT    DIFFERENCE 
 ----------------------------------------------------------------------------------------------------------------------------------------------------
     1      (1,1,2)               0.0000      -1.1760       0.0000       0.0000       0.0000       0.0000       1.1760       2.33147E-14  1.98249E-12
     2      (1,1,3)               0.0000      -1.1760       0.0000       0.0000       0.0000       0.0000       1.1760       2.33147E-14  1.98249E-12
     3      (1,1,4)               0.0000      -1.1760       0.0000       0.0000       0.0000       0.0000       1.1760       2.33147E-14  1.98249E-12
     4      (1,1,5)               0.0000      -1.1760       0.0000       0.0000       0.0000       0.0000       1.1760       2.33147E-14  1.98249E-12
     5      (1,1,6)               0.0000      -1.1760       0.0000       0.0000       0.0000       0.0000       1.1760       2.33147E-14  1.98249E-12
     6      (1,1,7)               0.0000      -1.1760       0.0000       0.0000       0.0000       0.0000       1.1760       2.33147E-14  1.98249E-12
     7      (1,1,8)               0.0000      -1.1760       0.0000       0.0000       0.0000       0.0000       1.1760       2.33147E-14  1.98249E-12
     8      (1,1,9)               0.0000      -1.1760       0.0000       0.0000       0.0000       0.0000       1.1760       2.33147E-14  1.98249E-12
     9      (2,1,2)               1.1760      -15.240       0.0000       0.0000       0.0000      -5.71622E-02  14.122       1.64335E-04  1.07425E-03
     10     (2,1,3)               1.1760      -15.240       0.0000       0.0000       0.0000      -5.71622E-02  14.122       1.64335E-04  1.07425E-03
     11     (2,1,4)               1.1760      -15.240       0.0000       0.0000       0.0000      -5.71622E-02  14.122       1.64335E-04  1.07425E-03
     12     (2,1,5)               1.1760      -15.240       0.0000       0.0000       0.0000      -5.71622E-02  14.122       1.64335E-04  1.07425E-03
     13     (2,1,6)               1.1760      -15.240       0.0000       0.0000       0.0000      -5.71622E-02  14.122       1.64335E-04  1.07425E-03
     14     (2,1,7)               1.1760      -15.240       0.0000       0.0000       0.0000      -5.71622E-02  14.122       1.64335E-04  1.07425E-03
     15     (2,1,8)               1.1760      -15.240       0.0000       0.0000       0.0000      -5.71622E-02  14.122       1.64335E-04  1.07425E-03
     16     (2,1,9)               1.1760      -15.240       0.0000       0.0000       0.0000      -5.71622E-02  14.122       1.64335E-04  1.07425E-03
     17     (3,1,2)               15.240       0.0000       0.0000       0.0000       0.0000       0.0000      -15.240       1.82891E-06  1.20005E-05
     18     (3,1,3)               15.240       0.0000       0.0000       0.0000       0.0000       0.0000      -15.240       1.82891E-06  1.20005E-05
     19     (3,1,4)               15.240       0.0000       0.0000       0.0000       0.0000       0.0000      -15.240       1.82891E-06  1.20005E-05
     20     (3,1,5)               15.240       0.0000       0.0000       0.0000       0.0000       0.0000      -15.240       1.82891E-06  1.20005E-05
     21     (3,1,6)               15.240       0.0000       0.0000       0.0000       0.0000       0.0000      -15.240       1.82891E-06  1.20005E-05
     22     (3,1,7)               15.240       0.0000       0.0000       0.0000       0.0000       0.0000      -15.240       1.82891E-06  1.20005E-05
     23     (3,1,8)               15.240       0.0000       0.0000       0.0000       0.0000       0.0000      -15.240       1.82891E-06  1.20005E-05
     24     (3,1,9)               15.240       0.0000       0.0000       0.0000       0.0000       0.0000      -15.240       1.82891E-06  1.20005E-05
 ----------------------------------------------------------------------------------------------------------------------------------------------------


1
  HEAD IN LAYER   1 AT END OF TIME STEP  13 IN STRESS PERIOD    5
  ---------------------------------------------------------------------------

            1           2           3           4           5           6           7           8           9          10
 ........................................................................................................................
   1   -25.00      -25.00      -25.00      -25.00      -25.00      -25.00      -25.00      -25.00      -25.00      -25.00    
1
  HEAD IN LAYER   2 AT END OF TIME STEP  13 IN STRESS PERIOD    5
  ---------------------------------------------------------------------------

            1           2           3           4           5           6           7           8           9          10
 ........................................................................................................................
   1   -25.00      -25.00      -25.00      -25.00      -25.00      -25.00      -25.00      -25.00      -25.00      -25.00    
1
  HEAD IN LAYER   3 AT END OF TIME STEP  13 IN STRESS PERIOD    5
  ---------------------------------------------------------------------------

            1           2           3           4           5           6           7           8           9          10
 ........................................................................................................................
   1   -25.00      -25.00      -25.00      -25.00      -25.00      -25.00      -25.00      -25.00      -25.00      -25.00    

 HEAD WILL BE SAVED ON UNIT 1022 AT END OF TIME STEP   13, STRESS PERIOD    5


  UZF-1 BUDGET FOR ENTIRE MODEL AT END OF TIME STEP   13, STRESS PERIOD   5
  ------------------------------------------------------------------------------

     CUMULATIVE UZF-1      L**3       RATES FOR THIS TIME STEP      L**3/T
     ------------------                 ------------------------

           IN:                                      IN:
           ---                                      ---
                 GWF =           0.0000                   GWF =           0.0000
        INFILTRATION =      480000.0000          INFILTRATION =           0.0000
             REJ-INF =           0.0000               REJ-INF =           0.0000
                UZET =           0.0000                  UZET =           0.0000
             STORAGE =      367702.1115               STORAGE =         122.3813

            TOTAL IN =      847702.1115              TOTAL IN =         122.3813

          OUT:                                     OUT:
          ----                                     ----
                 GWF =           0.0000                   GWF =           0.0000
        INFILTRATION =           0.0000          INFILTRATION =           0.0000
             REJ-INF =           0.0000               REJ-INF =           0.0000
                UZET =         559.6174                  UZET =           0.4573
             STORAGE =      847085.0314               STORAGE =         121.9226

           TOTAL OUT =      847644.6488             TOTAL OUT =         122.3799

            IN - OUT =          57.4627              IN - OUT =       1.3293E-03

 PERCENT DISCREPANCY =           0.01     PERCENT DISCREPANCY =           0.00



  VOLUME BUDGET FOR ENTIRE MODEL AT END OF TIME STEP   13, STRESS PERIOD   5
  ---------------------------------------------------------------------------------------------------

     CUMULATIVE VOLUME      L**3       RATES FOR THIS TIME STEP      L**3/T          PACKAGE NAME    
     ------------------                 ------------------------                     ----------------

           IN:                                      IN:
           ---                                      ---
              STO-SS =           0.0000                STO-SS =           0.0000     STORAGE         
              STO-SY =           0.0000                STO-SY =           0.0000     STORAGE         
                 CHD =           0.0000                   CHD =           0.0000     CHD-1           
           UZF-GWRCH =           0.0000             UZF-GWRCH =           0.0000     UZF-1           
             UZF-GWD =           0.0000               UZF-GWD =           0.0000     UZF-1           
            UZF-GWET =           0.0000              UZF-GWET =           0.0000     UZF-1           

            TOTAL IN =           0.0000              TOTAL IN =           0.0000

          OUT:                                     OUT:
          ----                                     ----
              STO-SS =           0.0000                STO-SS =           0.0000     STORAGE         
              STO-SY =           0.0000                STO-SY =           0.0000     STORAGE         
                 CHD =           0.0000                   CHD =           0.0000     CHD-1           
           UZF-GWRCH =           0.0000             UZF-GWRCH =           0.0000     UZF-1           
             UZF-GWD =           0.0000               UZF-GWD =           0.0000     UZF-1           
            UZF-GWET =           0.0000              UZF-GWET =           0.0000     UZF-1           

           TOTAL OUT =           0.0000             TOTAL OUT =           0.0000

            IN - OUT =           0.0000              IN - OUT =           0.0000

 PERCENT DISCREPANCY =           0.00     PERCENT DISCREPANCY =           0.00




         TIME SUMMARY AT END OF TIME STEP   13 IN STRESS PERIOD    5
                    SECONDS     MINUTES      HOURS       DAYS        YEARS
                    -----------------------------------------------------------
   TIME STEP LENGTH 3.45600E+06  57600.      960.00      40.000     0.10951    
 STRESS PERIOD TIME 4.49280E+07 7.48800E+05  12480.      520.00      1.4237    
         TOTAL TIME 9.33120E+07 1.55520E+06  25920.      1080.0      2.9569    


end timestep


start timestep kper="5" kstp="14" mode="normal"

 UBDSV1 SAVING     FLOW-JA-FACE ON UNIT   1020 AT TIME STEP     14, STRESS PERIOD      5
 UBDSV06 SAVING     FLOW-JA-FACE IN MODEL GWF_1            PACKAGE UZF-1           CONNECTED TO MODEL GWF_1            PACKAGE UZF-1            ON UNIT   1014 AT TIME STEP     14, STRESS PERIOD      5
 UBDSV06 SAVING              GWF IN MODEL GWF_1            PACKAGE UZF-1           CONNECTED TO MODEL GWF_1            PACKAGE GWF_1            ON UNIT   1014 AT TIME STEP     14, STRESS PERIOD      5
 UBDSV06 SAVING     INFILTRATION IN MODEL GWF_1            PACKAGE UZF-1           CONNECTED TO MODEL GWF_1            PACKAGE UZF-1            ON UNIT   1014 AT TIME STEP     14, STRESS PERIOD      5
 UBDSV06 SAVING          REJ-INF IN MODEL GWF_1            PACKAGE UZF-1           CONNECTED TO MODEL GWF_1            PACKAGE UZF-1            ON UNIT   1014 AT TIME STEP     14, STRESS PERIOD      5
 UBDSV06 SAVING             UZET IN MODEL GWF_1            PACKAGE UZF-1           CONNECTED TO MODEL GWF_1            PACKAGE UZF-1            ON UNIT   1014 AT TIME STEP     14, STRESS PERIOD      5
 UBDSV06 SAVING          STORAGE IN MODEL GWF_1            PACKAGE UZF-1           CONNECTED TO MODEL GWF_1            PACKAGE UZF-1            ON UNIT   1014 AT TIME STEP     14, STRESS PERIOD      5

 CHD PACKAGE (CHD-1) FLOW RATES   PERIOD      5   STEP       14
 -----------------------------------------------
   NUMBER   CELLID                    RATE      
 -----------------------------------------------
     1      (3,1,1)               0.0000000     
     2      (3,1,10)              0.0000000     
 -----------------------------------------------




 UZF-GWRCH PACKAGE (UZF-1) FLOW RATES   PERIOD      5   STEP       14
 ----------------------------------------------------------------------------------------
   NUMBER   CELLID                    RATE       NAME                                    
 ----------------------------------------------------------------------------------------
     1      (1,1,2)               0.0000000      UZF01                                   
     2      (1,1,3)               0.0000000      UZF02                                   
     3      (1,1,4)               0.0000000      UZF03                                   
     4      (1,1,5)               0.0000000      UZF04                                   
     5      (1,1,6)               0.0000000      UZF05                                   
     6      (1,1,7)               0.0000000      UZF06                                   
     7      (1,1,8)               0.0000000      UZF07                                   
     8      (1,1,9)               0.0000000      UZF08                                   
     9      (2,1,2)               0.0000000      UZF08                                   
     10     (2,1,3)               0.0000000      UZF10                                   
     11     (2,1,4)               0.0000000      UZF11                                   
     12     (2,1,5)               0.0000000      UZF12                                   
     13     (2,1,6)               0.0000000      UZF13                                   
     14     (2,1,7)               0.0000000      UZF14                                   
     15     (2,1,8)               0.0000000      UZF15                                   
     16     (2,1,9)               0.0000000      UZF16                                   
     17     (3,1,2)               0.0000000      UZF17                                   
     18     (3,1,3)               0.0000000      UZF18                                   
     19     (3,1,4)               0.0000000      UZF19                                   
     20     (3,1,5)               0.0000000      UZF20                                   
     21     (3,1,6)               0.0000000      UZF21                                   
     22     (3,1,7)               0.0000000      UZF22                                   
     23     (3,1,8)               0.0000000      UZF23                                   
     24     (3,1,9)               0.0000000      UZF24                                   
 ----------------------------------------------------------------------------------------




 UZF-GWD PACKAGE (UZF-1) FLOW RATES   PERIOD      5   STEP       14
 ----------------------------------------------------------------------------------------
   NUMBER   CELLID                    RATE       NAME                                    
 ----------------------------------------------------------------------------------------
     1      (1,1,2)               0.0000000      UZF01                                   
     2      (1,1,3)               0.0000000      UZF02                                   
     3      (1,1,4)               0.0000000      UZF03                                   
     4      (1,1,5)               0.0000000      UZF04                                   
     5      (1,1,6)               0.0000000      UZF05                                   
     6      (1,1,7)               0.0000000      UZF06                                   
     7      (1,1,8)               0.0000000      UZF07                                   
     8      (1,1,9)               0.0000000      UZF08                                   
     9      (2,1,2)               0.0000000      UZF08                                   
     10     (2,1,3)               0.0000000      UZF10                                   
     11     (2,1,4)               0.0000000      UZF11                                   
     12     (2,1,5)               0.0000000      UZF12                                   
     13     (2,1,6)               0.0000000      UZF13                                   
     14     (2,1,7)               0.0000000      UZF14                                   
     15     (2,1,8)               0.0000000      UZF15                                   
     16     (2,1,9)               0.0000000      UZF16                                   
     17     (3,1,2)               0.0000000      UZF17                                   
     18     (3,1,3)               0.0000000      UZF18                                   
     19     (3,1,4)               0.0000000      UZF19                                   
     20     (3,1,5)               0.0000000      UZF20                                   
     21     (3,1,6)               0.0000000      UZF21                                   
     22     (3,1,7)               0.0000000      UZF22                                   
     23     (3,1,8)               0.0000000      UZF23                                   
     24     (3,1,9)               0.0000000      UZF24                                   
 ----------------------------------------------------------------------------------------




 UZF-GWET PACKAGE (UZF-1) FLOW RATES   PERIOD      5   STEP       14
 ----------------------------------------------------------------------------------------
   NUMBER   CELLID                    RATE       NAME                                    
 ----------------------------------------------------------------------------------------
     1      (1,1,2)               0.0000000      UZF01                                   
     2      (1,1,3)               0.0000000      UZF02                                   
     3      (1,1,4)               0.0000000      UZF03                                   
     4      (1,1,5)               0.0000000      UZF04                                   
     5      (1,1,6)               0.0000000      UZF05                                   
     6      (1,1,7)               0.0000000      UZF06                                   
     7      (1,1,8)               0.0000000      UZF07                                   
     8      (1,1,9)               0.0000000      UZF08                                   
     9      (2,1,2)               0.0000000      UZF08                                   
     10     (2,1,3)               0.0000000      UZF10                                   
     11     (2,1,4)               0.0000000      UZF11                                   
     12     (2,1,5)               0.0000000      UZF12                                   
     13     (2,1,6)               0.0000000      UZF13                                   
     14     (2,1,7)               0.0000000      UZF14                                   
     15     (2,1,8)               0.0000000      UZF15                                   
     16     (2,1,9)               0.0000000      UZF16                                   
     17     (3,1,2)               0.0000000      UZF17                                   
     18     (3,1,3)               0.0000000      UZF18                                   
     19     (3,1,4)               0.0000000      UZF19                                   
     20     (3,1,5)               0.0000000      UZF20                                   
     21     (3,1,6)               0.0000000      UZF21                                   
     22     (3,1,7)               0.0000000      UZF22                                   
     23     (3,1,8)               0.0000000      UZF23                                   
     24     (3,1,9)               0.0000000      UZF24                                   
 ----------------------------------------------------------------------------------------




 UZF-1 PACKAGE - SUMMARY OF FLOWS FOR EACH CONTROL VOLUME   PERIOD      5   STEP       14
 ----------------------------------------------------------------------------------------------------------------------------------------------------
                                                                                                                                           PERCENT   
   NUMBER   CELLID                  INFLOW      OUTFLOW        GWF      INFILTRATION   REJ INF        UZET       STORAGE      IN - OUT    DIFFERENCE 
 ----------------------------------------------------------------------------------------------------------------------------------------------------
     1      (1,1,2)               0.0000      -1.1760       0.0000       0.0000       0.0000       0.0000       1.1760       2.33147E-14  1.98249E-12
     2      (1,1,3)               0.0000      -1.1760       0.0000       0.0000       0.0000       0.0000       1.1760       2.33147E-14  1.98249E-12
     3      (1,1,4)               0.0000      -1.1760       0.0000       0.0000       0.0000       0.0000       1.1760       2.33147E-14  1.98249E-12
     4      (1,1,5)               0.0000      -1.1760       0.0000       0.0000       0.0000       0.0000       1.1760       2.33147E-14  1.98249E-12
     5      (1,1,6)               0.0000      -1.1760       0.0000       0.0000       0.0000       0.0000       1.1760       2.33147E-14  1.98249E-12
     6      (1,1,7)               0.0000      -1.1760       0.0000       0.0000       0.0000       0.0000       1.1760       2.33147E-14  1.98249E-12
     7      (1,1,8)               0.0000      -1.1760       0.0000       0.0000       0.0000       0.0000       1.1760       2.33147E-14  1.98249E-12
     8      (1,1,9)               0.0000      -1.1760       0.0000       0.0000       0.0000       0.0000       1.1760       2.33147E-14  1.98249E-12
     9      (2,1,2)               1.1760      -15.235       0.0000       0.0000       0.0000      -5.60924E-02  14.116       1.76673E-04  1.15536E-03
     10     (2,1,3)               1.1760      -15.235       0.0000       0.0000       0.0000      -5.60924E-02  14.116       1.76673E-04  1.15536E-03
     11     (2,1,4)               1.1760      -15.235       0.0000       0.0000       0.0000      -5.60924E-02  14.116       1.76673E-04  1.15536E-03
     12     (2,1,5)               1.1760      -15.235       0.0000       0.0000       0.0000      -5.60924E-02  14.116       1.76673E-04  1.15536E-03
     13     (2,1,6)               1.1760      -15.235       0.0000       0.0000       0.0000      -5.60924E-02  14.116       1.76673E-04  1.15536E-03
     14     (2,1,7)               1.1760      -15.235       0.0000       0.0000       0.0000      -5.60924E-02  14.116       1.76673E-04  1.15536E-03
     15     (2,1,8)               1.1760      -15.235       0.0000       0.0000       0.0000      -5.60924E-02  14.116       1.76673E-04  1.15536E-03
     16     (2,1,9)               1.1760      -15.235       0.0000       0.0000       0.0000      -5.60924E-02  14.116       1.76673E-04  1.15536E-03
     17     (3,1,2)               15.235       0.0000       0.0000       0.0000       0.0000       0.0000      -15.235       1.82847E-06  1.20014E-05
     18     (3,1,3)               15.235       0.0000       0.0000       0.0000       0.0000       0.0000      -15.235       1.82847E-06  1.20014E-05
     19     (3,1,4)               15.235       0.0000       0.0000       0.0000       0.0000       0.0000      -15.235       1.82847E-06  1.20014E-05
     20     (3,1,5)               15.235       0.0000       0.0000       0.0000       0.0000       0.0000      -15.235       1.82847E-06  1.20014E-05
     21     (3,1,6)               15.235       0.0000       0.0000       0.0000       0.0000       0.0000      -15.235       1.82847E-06  1.20014E-05
     22     (3,1,7)               15.235       0.0000       0.0000       0.0000       0.0000       0.0000      -15.235       1.82847E-06  1.20014E-05
     23     (3,1,8)               15.235       0.0000       0.0000       0.0000       0.0000       0.0000      -15.235       1.82847E-06  1.20014E-05
     24     (3,1,9)               15.235       0.0000       0.0000       0.0000       0.0000       0.0000      -15.235       1.82847E-06  1.20014E-05
 ----------------------------------------------------------------------------------------------------------------------------------------------------


1
  HEAD IN LAYER   1 AT END OF TIME STEP  14 IN STRESS PERIOD    5
  ---------------------------------------------------------------------------

            1           2           3           4           5           6           7           8           9          10
 ........................................................................................................................
   1   -25.00      -25.00      -25.00      -25.00      -25.00      -25.00      -25.00      -25.00      -25.00      -25.00    
1
  HEAD IN LAYER   2 AT END OF TIME STEP  14 IN STRESS PERIOD    5
  ---------------------------------------------------------------------------

            1           2           3           4           5           6           7           8           9          10
 ........................................................................................................................
   1   -25.00      -25.00      -25.00      -25.00      -25.00      -25.00      -25.00      -25.00      -25.00      -25.00    
1
  HEAD IN LAYER   3 AT END OF TIME STEP  14 IN STRESS PERIOD    5
  ---------------------------------------------------------------------------

            1           2           3           4           5           6           7           8           9          10
 ........................................................................................................................
   1   -25.00      -25.00      -25.00      -25.00      -25.00      -25.00      -25.00      -25.00      -25.00      -25.00    

 HEAD WILL BE SAVED ON UNIT 1022 AT END OF TIME STEP   14, STRESS PERIOD    5


  UZF-1 BUDGET FOR ENTIRE MODEL AT END OF TIME STEP   14, STRESS PERIOD   5
  ------------------------------------------------------------------------------

     CUMULATIVE UZF-1      L**3       RATES FOR THIS TIME STEP      L**3/T
     ------------------                 ------------------------

           IN:                                      IN:
           ---                                      ---
                 GWF =           0.0000                   GWF =           0.0000
        INFILTRATION =      480000.0000          INFILTRATION =           0.0000
             REJ-INF =           0.0000               REJ-INF =           0.0000
                UZET =           0.0000                  UZET =           0.0000
             STORAGE =      372595.4655               STORAGE =         122.3339

            TOTAL IN =      852595.4655              TOTAL IN =         122.3339

          OUT:                                     OUT:
          ----                                     ----
                 GWF =           0.0000                   GWF =           0.0000
        INFILTRATION =           0.0000          INFILTRATION =           0.0000
             REJ-INF =           0.0000               REJ-INF =           0.0000
                UZET =         577.5670                  UZET =           0.4487
             STORAGE =      851960.3787               STORAGE =         121.8837

           TOTAL OUT =      852537.9457             TOTAL OUT =         122.3324

            IN - OUT =          57.5198              IN - OUT =       1.4280E-03

 PERCENT DISCREPANCY =           0.01     PERCENT DISCREPANCY =           0.00



  VOLUME BUDGET FOR ENTIRE MODEL AT END OF TIME STEP   14, STRESS PERIOD   5
  ---------------------------------------------------------------------------------------------------

     CUMULATIVE VOLUME      L**3       RATES FOR THIS TIME STEP      L**3/T          PACKAGE NAME    
     ------------------                 ------------------------                     ----------------

           IN:                                      IN:
           ---                                      ---
              STO-SS =           0.0000                STO-SS =           0.0000     STORAGE         
              STO-SY =           0.0000                STO-SY =           0.0000     STORAGE         
                 CHD =           0.0000                   CHD =           0.0000     CHD-1           
           UZF-GWRCH =           0.0000             UZF-GWRCH =           0.0000     UZF-1           
             UZF-GWD =           0.0000               UZF-GWD =           0.0000     UZF-1           
            UZF-GWET =           0.0000              UZF-GWET =           0.0000     UZF-1           

            TOTAL IN =           0.0000              TOTAL IN =           0.0000

          OUT:                                     OUT:
          ----                                     ----
              STO-SS =           0.0000                STO-SS =           0.0000     STORAGE         
              STO-SY =           0.0000                STO-SY =           0.0000     STORAGE         
                 CHD =           0.0000                   CHD =           0.0000     CHD-1           
           UZF-GWRCH =           0.0000             UZF-GWRCH =           0.0000     UZF-1           
             UZF-GWD =           0.0000               UZF-GWD =           0.0000     UZF-1           
            UZF-GWET =           0.0000              UZF-GWET =           0.0000     UZF-1           

           TOTAL OUT =           0.0000             TOTAL OUT =           0.0000

            IN - OUT =           0.0000              IN - OUT =           0.0000

 PERCENT DISCREPANCY =           0.00     PERCENT DISCREPANCY =           0.00




         TIME SUMMARY AT END OF TIME STEP   14 IN STRESS PERIOD    5
                    SECONDS     MINUTES      HOURS       DAYS        YEARS
                    -----------------------------------------------------------
   TIME STEP LENGTH 3.45600E+06  57600.      960.00      40.000     0.10951    
 STRESS PERIOD TIME 4.83840E+07 8.06400E+05  13440.      560.00      1.5332    
         TOTAL TIME 9.67680E+07 1.61280E+06  26880.      1120.0      3.0664    


end timestep


start timestep kper="5" kstp="15" mode="normal"

 UBDSV1 SAVING     FLOW-JA-FACE ON UNIT   1020 AT TIME STEP     15, STRESS PERIOD      5
 UBDSV06 SAVING     FLOW-JA-FACE IN MODEL GWF_1            PACKAGE UZF-1           CONNECTED TO MODEL GWF_1            PACKAGE UZF-1            ON UNIT   1014 AT TIME STEP     15, STRESS PERIOD      5
 UBDSV06 SAVING              GWF IN MODEL GWF_1            PACKAGE UZF-1           CONNECTED TO MODEL GWF_1            PACKAGE GWF_1            ON UNIT   1014 AT TIME STEP     15, STRESS PERIOD      5
 UBDSV06 SAVING     INFILTRATION IN MODEL GWF_1            PACKAGE UZF-1           CONNECTED TO MODEL GWF_1            PACKAGE UZF-1            ON UNIT   1014 AT TIME STEP     15, STRESS PERIOD      5
 UBDSV06 SAVING          REJ-INF IN MODEL GWF_1            PACKAGE UZF-1           CONNECTED TO MODEL GWF_1            PACKAGE UZF-1            ON UNIT   1014 AT TIME STEP     15, STRESS PERIOD      5
 UBDSV06 SAVING             UZET IN MODEL GWF_1            PACKAGE UZF-1           CONNECTED TO MODEL GWF_1            PACKAGE UZF-1            ON UNIT   1014 AT TIME STEP     15, STRESS PERIOD      5
 UBDSV06 SAVING          STORAGE IN MODEL GWF_1            PACKAGE UZF-1           CONNECTED TO MODEL GWF_1            PACKAGE UZF-1            ON UNIT   1014 AT TIME STEP     15, STRESS PERIOD      5

 CHD PACKAGE (CHD-1) FLOW RATES   PERIOD      5   STEP       15
 -----------------------------------------------
   NUMBER   CELLID                    RATE      
 -----------------------------------------------
     1      (3,1,1)               0.0000000     
     2      (3,1,10)              0.0000000     
 -----------------------------------------------




 UZF-GWRCH PACKAGE (UZF-1) FLOW RATES   PERIOD      5   STEP       15
 ----------------------------------------------------------------------------------------
   NUMBER   CELLID                    RATE       NAME                                    
 ----------------------------------------------------------------------------------------
     1      (1,1,2)               0.0000000      UZF01                                   
     2      (1,1,3)               0.0000000      UZF02                                   
     3      (1,1,4)               0.0000000      UZF03                                   
     4      (1,1,5)               0.0000000      UZF04                                   
     5      (1,1,6)               0.0000000      UZF05                                   
     6      (1,1,7)               0.0000000      UZF06                                   
     7      (1,1,8)               0.0000000      UZF07                                   
     8      (1,1,9)               0.0000000      UZF08                                   
     9      (2,1,2)               0.0000000      UZF08                                   
     10     (2,1,3)               0.0000000      UZF10                                   
     11     (2,1,4)               0.0000000      UZF11                                   
     12     (2,1,5)               0.0000000      UZF12                                   
     13     (2,1,6)               0.0000000      UZF13                                   
     14     (2,1,7)               0.0000000      UZF14                                   
     15     (2,1,8)               0.0000000      UZF15                                   
     16     (2,1,9)               0.0000000      UZF16                                   
     17     (3,1,2)               0.0000000      UZF17                                   
     18     (3,1,3)               0.0000000      UZF18                                   
     19     (3,1,4)               0.0000000      UZF19                                   
     20     (3,1,5)               0.0000000      UZF20                                   
     21     (3,1,6)               0.0000000      UZF21                                   
     22     (3,1,7)               0.0000000      UZF22                                   
     23     (3,1,8)               0.0000000      UZF23                                   
     24     (3,1,9)               0.0000000      UZF24                                   
 ----------------------------------------------------------------------------------------




 UZF-GWD PACKAGE (UZF-1) FLOW RATES   PERIOD      5   STEP       15
 ----------------------------------------------------------------------------------------
   NUMBER   CELLID                    RATE       NAME                                    
 ----------------------------------------------------------------------------------------
     1      (1,1,2)               0.0000000      UZF01                                   
     2      (1,1,3)               0.0000000      UZF02                                   
     3      (1,1,4)               0.0000000      UZF03                                   
     4      (1,1,5)               0.0000000      UZF04                                   
     5      (1,1,6)               0.0000000      UZF05                                   
     6      (1,1,7)               0.0000000      UZF06                                   
     7      (1,1,8)               0.0000000      UZF07                                   
     8      (1,1,9)               0.0000000      UZF08                                   
     9      (2,1,2)               0.0000000      UZF08                                   
     10     (2,1,3)               0.0000000      UZF10                                   
     11     (2,1,4)               0.0000000      UZF11                                   
     12     (2,1,5)               0.0000000      UZF12                                   
     13     (2,1,6)               0.0000000      UZF13                                   
     14     (2,1,7)               0.0000000      UZF14                                   
     15     (2,1,8)               0.0000000      UZF15                                   
     16     (2,1,9)               0.0000000      UZF16                                   
     17     (3,1,2)               0.0000000      UZF17                                   
     18     (3,1,3)               0.0000000      UZF18                                   
     19     (3,1,4)               0.0000000      UZF19                                   
     20     (3,1,5)               0.0000000      UZF20                                   
     21     (3,1,6)               0.0000000      UZF21                                   
     22     (3,1,7)               0.0000000      UZF22                                   
     23     (3,1,8)               0.0000000      UZF23                                   
     24     (3,1,9)               0.0000000      UZF24                                   
 ----------------------------------------------------------------------------------------




 UZF-GWET PACKAGE (UZF-1) FLOW RATES   PERIOD      5   STEP       15
 ----------------------------------------------------------------------------------------
   NUMBER   CELLID                    RATE       NAME                                    
 ----------------------------------------------------------------------------------------
     1      (1,1,2)               0.0000000      UZF01                                   
     2      (1,1,3)               0.0000000      UZF02                                   
     3      (1,1,4)               0.0000000      UZF03                                   
     4      (1,1,5)               0.0000000      UZF04                                   
     5      (1,1,6)               0.0000000      UZF05                                   
     6      (1,1,7)               0.0000000      UZF06                                   
     7      (1,1,8)               0.0000000      UZF07                                   
     8      (1,1,9)               0.0000000      UZF08                                   
     9      (2,1,2)               0.0000000      UZF08                                   
     10     (2,1,3)               0.0000000      UZF10                                   
     11     (2,1,4)               0.0000000      UZF11                                   
     12     (2,1,5)               0.0000000      UZF12                                   
     13     (2,1,6)               0.0000000      UZF13                                   
     14     (2,1,7)               0.0000000      UZF14                                   
     15     (2,1,8)               0.0000000      UZF15                                   
     16     (2,1,9)               0.0000000      UZF16                                   
     17     (3,1,2)               0.0000000      UZF17                                   
     18     (3,1,3)               0.0000000      UZF18                                   
     19     (3,1,4)               0.0000000      UZF19                                   
     20     (3,1,5)               0.0000000      UZF20                                   
     21     (3,1,6)               0.0000000      UZF21                                   
     22     (3,1,7)               0.0000000      UZF22                                   
     23     (3,1,8)               0.0000000      UZF23                                   
     24     (3,1,9)               0.0000000      UZF24                                   
 ----------------------------------------------------------------------------------------




 UZF-1 PACKAGE - SUMMARY OF FLOWS FOR EACH CONTROL VOLUME   PERIOD      5   STEP       15
 ----------------------------------------------------------------------------------------------------------------------------------------------------
                                                                                                                                           PERCENT   
   NUMBER   CELLID                  INFLOW      OUTFLOW        GWF      INFILTRATION   REJ INF        UZET       STORAGE      IN - OUT    DIFFERENCE 
 ----------------------------------------------------------------------------------------------------------------------------------------------------
     1      (1,1,2)               0.0000      -1.1760       0.0000       0.0000       0.0000       0.0000       1.1760       2.33147E-14  1.98249E-12
     2      (1,1,3)               0.0000      -1.1760       0.0000       0.0000       0.0000       0.0000       1.1760       2.33147E-14  1.98249E-12
     3      (1,1,4)               0.0000      -1.1760       0.0000       0.0000       0.0000       0.0000       1.1760       2.33147E-14  1.98249E-12
     4      (1,1,5)               0.0000      -1.1760       0.0000       0.0000       0.0000       0.0000       1.1760       2.33147E-14  1.98249E-12
     5      (1,1,6)               0.0000      -1.1760       0.0000       0.0000       0.0000       0.0000       1.1760       2.33147E-14  1.98249E-12
     6      (1,1,7)               0.0000      -1.1760       0.0000       0.0000       0.0000       0.0000       1.1760       2.33147E-14  1.98249E-12
     7      (1,1,8)               0.0000      -1.1760       0.0000       0.0000       0.0000       0.0000       1.1760       2.33147E-14  1.98249E-12
     8      (1,1,9)               0.0000      -1.1760       0.0000       0.0000       0.0000       0.0000       1.1760       2.33147E-14  1.98249E-12
     9      (2,1,2)               1.1760      -15.229       0.0000       0.0000       0.0000      -5.50225E-02  14.108       1.88583E-04  1.23385E-03
     10     (2,1,3)               1.1760      -15.229       0.0000       0.0000       0.0000      -5.50225E-02  14.108       1.88583E-04  1.23385E-03
     11     (2,1,4)               1.1760      -15.229       0.0000       0.0000       0.0000      -5.50225E-02  14.108       1.88583E-04  1.23385E-03
     12     (2,1,5)               1.1760      -15.229       0.0000       0.0000       0.0000      -5.50225E-02  14.108       1.88583E-04  1.23385E-03
     13     (2,1,6)               1.1760      -15.229       0.0000       0.0000       0.0000      -5.50225E-02  14.108       1.88583E-04  1.23385E-03
     14     (2,1,7)               1.1760      -15.229       0.0000       0.0000       0.0000      -5.50225E-02  14.108       1.88583E-04  1.23385E-03
     15     (2,1,8)               1.1760      -15.229       0.0000       0.0000       0.0000      -5.50225E-02  14.108       1.88583E-04  1.23385E-03
     16     (2,1,9)               1.1760      -15.229       0.0000       0.0000       0.0000      -5.50225E-02  14.108       1.88583E-04  1.23385E-03
     17     (3,1,2)               15.229       0.0000       0.0000       0.0000       0.0000       0.0000      -15.229       1.82791E-06  1.20027E-05
     18     (3,1,3)               15.229       0.0000       0.0000       0.0000       0.0000       0.0000      -15.229       1.82791E-06  1.20027E-05
     19     (3,1,4)               15.229       0.0000       0.0000       0.0000       0.0000       0.0000      -15.229       1.82791E-06  1.20027E-05
     20     (3,1,5)               15.229       0.0000       0.0000       0.0000       0.0000       0.0000      -15.229       1.82791E-06  1.20027E-05
     21     (3,1,6)               15.229       0.0000       0.0000       0.0000       0.0000       0.0000      -15.229       1.82791E-06  1.20027E-05
     22     (3,1,7)               15.229       0.0000       0.0000       0.0000       0.0000       0.0000      -15.229       1.82791E-06  1.20027E-05
     23     (3,1,8)               15.229       0.0000       0.0000       0.0000       0.0000       0.0000      -15.229       1.82791E-06  1.20027E-05
     24     (3,1,9)               15.229       0.0000       0.0000       0.0000       0.0000       0.0000      -15.229       1.82791E-06  1.20027E-05
 ----------------------------------------------------------------------------------------------------------------------------------------------------


1
  HEAD IN LAYER   1 AT END OF TIME STEP  15 IN STRESS PERIOD    5
  ---------------------------------------------------------------------------

            1           2           3           4           5           6           7           8           9          10
 ........................................................................................................................
   1   -25.00      -25.00      -25.00      -25.00      -25.00      -25.00      -25.00      -25.00      -25.00      -25.00    
1
  HEAD IN LAYER   2 AT END OF TIME STEP  15 IN STRESS PERIOD    5
  ---------------------------------------------------------------------------

            1           2           3           4           5           6           7           8           9          10
 ........................................................................................................................
   1   -25.00      -25.00      -25.00      -25.00      -25.00      -25.00      -25.00      -25.00      -25.00      -25.00    
1
  HEAD IN LAYER   3 AT END OF TIME STEP  15 IN STRESS PERIOD    5
  ---------------------------------------------------------------------------

            1           2           3           4           5           6           7           8           9          10
 ........................................................................................................................
   1   -25.00      -25.00      -25.00      -25.00      -25.00      -25.00      -25.00      -25.00      -25.00      -25.00    

 HEAD WILL BE SAVED ON UNIT 1022 AT END OF TIME STEP   15, STRESS PERIOD    5


  UZF-1 BUDGET FOR ENTIRE MODEL AT END OF TIME STEP   15, STRESS PERIOD   5
  ------------------------------------------------------------------------------

     CUMULATIVE UZF-1      L**3       RATES FOR THIS TIME STEP      L**3/T
     ------------------                 ------------------------

           IN:                                      IN:
           ---                                      ---
                 GWF =           0.0000                   GWF =           0.0000
        INFILTRATION =      480000.0000          INFILTRATION =           0.0000
             REJ-INF =           0.0000               REJ-INF =           0.0000
                UZET =           0.0000                  UZET =           0.0000
             STORAGE =      377486.4320               STORAGE =         122.2742

            TOTAL IN =      857486.4320              TOTAL IN =         122.2742

          OUT:                                     OUT:
          ----                                     ----
                 GWF =           0.0000                   GWF =           0.0000
        INFILTRATION =           0.0000          INFILTRATION =           0.0000
             REJ-INF =           0.0000               REJ-INF =           0.0000
                UZET =         595.1742                  UZET =           0.4402
             STORAGE =      856833.6770               STORAGE =         121.8325

           TOTAL OUT =      857428.8512             TOTAL OUT =         122.2726

            IN - OUT =          57.5807              IN - OUT =       1.5233E-03

 PERCENT DISCREPANCY =           0.01     PERCENT DISCREPANCY =           0.00



  VOLUME BUDGET FOR ENTIRE MODEL AT END OF TIME STEP   15, STRESS PERIOD   5
  ---------------------------------------------------------------------------------------------------

     CUMULATIVE VOLUME      L**3       RATES FOR THIS TIME STEP      L**3/T          PACKAGE NAME    
     ------------------                 ------------------------                     ----------------

           IN:                                      IN:
           ---                                      ---
              STO-SS =           0.0000                STO-SS =           0.0000     STORAGE         
              STO-SY =           0.0000                STO-SY =           0.0000     STORAGE         
                 CHD =           0.0000                   CHD =           0.0000     CHD-1           
           UZF-GWRCH =           0.0000             UZF-GWRCH =           0.0000     UZF-1           
             UZF-GWD =           0.0000               UZF-GWD =           0.0000     UZF-1           
            UZF-GWET =           0.0000              UZF-GWET =           0.0000     UZF-1           

            TOTAL IN =           0.0000              TOTAL IN =           0.0000

          OUT:                                     OUT:
          ----                                     ----
              STO-SS =           0.0000                STO-SS =           0.0000     STORAGE         
              STO-SY =           0.0000                STO-SY =           0.0000     STORAGE         
                 CHD =           0.0000                   CHD =           0.0000     CHD-1           
           UZF-GWRCH =           0.0000             UZF-GWRCH =           0.0000     UZF-1           
             UZF-GWD =           0.0000               UZF-GWD =           0.0000     UZF-1           
            UZF-GWET =           0.0000              UZF-GWET =           0.0000     UZF-1           

           TOTAL OUT =           0.0000             TOTAL OUT =           0.0000

            IN - OUT =           0.0000              IN - OUT =           0.0000

 PERCENT DISCREPANCY =           0.00     PERCENT DISCREPANCY =           0.00




         TIME SUMMARY AT END OF TIME STEP   15 IN STRESS PERIOD    5
                    SECONDS     MINUTES      HOURS       DAYS        YEARS
                    -----------------------------------------------------------
   TIME STEP LENGTH 3.45600E+06  57600.      960.00      40.000     0.10951    
 STRESS PERIOD TIME 5.18400E+07 8.64000E+05  14400.      600.00      1.6427    
         TOTAL TIME 1.00224E+08 1.67040E+06  27840.      1160.0      3.1759    


end timestep


start timestep kper="5" kstp="16" mode="normal"

 UBDSV1 SAVING     FLOW-JA-FACE ON UNIT   1020 AT TIME STEP     16, STRESS PERIOD      5
 UBDSV06 SAVING     FLOW-JA-FACE IN MODEL GWF_1            PACKAGE UZF-1           CONNECTED TO MODEL GWF_1            PACKAGE UZF-1            ON UNIT   1014 AT TIME STEP     16, STRESS PERIOD      5
 UBDSV06 SAVING              GWF IN MODEL GWF_1            PACKAGE UZF-1           CONNECTED TO MODEL GWF_1            PACKAGE GWF_1            ON UNIT   1014 AT TIME STEP     16, STRESS PERIOD      5
 UBDSV06 SAVING     INFILTRATION IN MODEL GWF_1            PACKAGE UZF-1           CONNECTED TO MODEL GWF_1            PACKAGE UZF-1            ON UNIT   1014 AT TIME STEP     16, STRESS PERIOD      5
 UBDSV06 SAVING          REJ-INF IN MODEL GWF_1            PACKAGE UZF-1           CONNECTED TO MODEL GWF_1            PACKAGE UZF-1            ON UNIT   1014 AT TIME STEP     16, STRESS PERIOD      5
 UBDSV06 SAVING             UZET IN MODEL GWF_1            PACKAGE UZF-1           CONNECTED TO MODEL GWF_1            PACKAGE UZF-1            ON UNIT   1014 AT TIME STEP     16, STRESS PERIOD      5
 UBDSV06 SAVING          STORAGE IN MODEL GWF_1            PACKAGE UZF-1           CONNECTED TO MODEL GWF_1            PACKAGE UZF-1            ON UNIT   1014 AT TIME STEP     16, STRESS PERIOD      5

 CHD PACKAGE (CHD-1) FLOW RATES   PERIOD      5   STEP       16
 -----------------------------------------------
   NUMBER   CELLID                    RATE      
 -----------------------------------------------
     1      (3,1,1)               0.0000000     
     2      (3,1,10)              0.0000000     
 -----------------------------------------------




 UZF-GWRCH PACKAGE (UZF-1) FLOW RATES   PERIOD      5   STEP       16
 ----------------------------------------------------------------------------------------
   NUMBER   CELLID                    RATE       NAME                                    
 ----------------------------------------------------------------------------------------
     1      (1,1,2)               0.0000000      UZF01                                   
     2      (1,1,3)               0.0000000      UZF02                                   
     3      (1,1,4)               0.0000000      UZF03                                   
     4      (1,1,5)               0.0000000      UZF04                                   
     5      (1,1,6)               0.0000000      UZF05                                   
     6      (1,1,7)               0.0000000      UZF06                                   
     7      (1,1,8)               0.0000000      UZF07                                   
     8      (1,1,9)               0.0000000      UZF08                                   
     9      (2,1,2)               0.0000000      UZF08                                   
     10     (2,1,3)               0.0000000      UZF10                                   
     11     (2,1,4)               0.0000000      UZF11                                   
     12     (2,1,5)               0.0000000      UZF12                                   
     13     (2,1,6)               0.0000000      UZF13                                   
     14     (2,1,7)               0.0000000      UZF14                                   
     15     (2,1,8)               0.0000000      UZF15                                   
     16     (2,1,9)               0.0000000      UZF16                                   
     17     (3,1,2)               0.0000000      UZF17                                   
     18     (3,1,3)               0.0000000      UZF18                                   
     19     (3,1,4)               0.0000000      UZF19                                   
     20     (3,1,5)               0.0000000      UZF20                                   
     21     (3,1,6)               0.0000000      UZF21                                   
     22     (3,1,7)               0.0000000      UZF22                                   
     23     (3,1,8)               0.0000000      UZF23                                   
     24     (3,1,9)               0.0000000      UZF24                                   
 ----------------------------------------------------------------------------------------




 UZF-GWD PACKAGE (UZF-1) FLOW RATES   PERIOD      5   STEP       16
 ----------------------------------------------------------------------------------------
   NUMBER   CELLID                    RATE       NAME                                    
 ----------------------------------------------------------------------------------------
     1      (1,1,2)               0.0000000      UZF01                                   
     2      (1,1,3)               0.0000000      UZF02                                   
     3      (1,1,4)               0.0000000      UZF03                                   
     4      (1,1,5)               0.0000000      UZF04                                   
     5      (1,1,6)               0.0000000      UZF05                                   
     6      (1,1,7)               0.0000000      UZF06                                   
     7      (1,1,8)               0.0000000      UZF07                                   
     8      (1,1,9)               0.0000000      UZF08                                   
     9      (2,1,2)               0.0000000      UZF08                                   
     10     (2,1,3)               0.0000000      UZF10                                   
     11     (2,1,4)               0.0000000      UZF11                                   
     12     (2,1,5)               0.0000000      UZF12                                   
     13     (2,1,6)               0.0000000      UZF13                                   
     14     (2,1,7)               0.0000000      UZF14                                   
     15     (2,1,8)               0.0000000      UZF15                                   
     16     (2,1,9)               0.0000000      UZF16                                   
     17     (3,1,2)               0.0000000      UZF17                                   
     18     (3,1,3)               0.0000000      UZF18                                   
     19     (3,1,4)               0.0000000      UZF19                                   
     20     (3,1,5)               0.0000000      UZF20                                   
     21     (3,1,6)               0.0000000      UZF21                                   
     22     (3,1,7)               0.0000000      UZF22                                   
     23     (3,1,8)               0.0000000      UZF23                                   
     24     (3,1,9)               0.0000000      UZF24                                   
 ----------------------------------------------------------------------------------------




 UZF-GWET PACKAGE (UZF-1) FLOW RATES   PERIOD      5   STEP       16
 ----------------------------------------------------------------------------------------
   NUMBER   CELLID                    RATE       NAME                                    
 ----------------------------------------------------------------------------------------
     1      (1,1,2)               0.0000000      UZF01                                   
     2      (1,1,3)               0.0000000      UZF02                                   
     3      (1,1,4)               0.0000000      UZF03                                   
     4      (1,1,5)               0.0000000      UZF04                                   
     5      (1,1,6)               0.0000000      UZF05                                   
     6      (1,1,7)               0.0000000      UZF06                                   
     7      (1,1,8)               0.0000000      UZF07                                   
     8      (1,1,9)               0.0000000      UZF08                                   
     9      (2,1,2)               0.0000000      UZF08                                   
     10     (2,1,3)               0.0000000      UZF10                                   
     11     (2,1,4)               0.0000000      UZF11                                   
     12     (2,1,5)               0.0000000      UZF12                                   
     13     (2,1,6)               0.0000000      UZF13                                   
     14     (2,1,7)               0.0000000      UZF14                                   
     15     (2,1,8)               0.0000000      UZF15                                   
     16     (2,1,9)               0.0000000      UZF16                                   
     17     (3,1,2)               0.0000000      UZF17                                   
     18     (3,1,3)               0.0000000      UZF18                                   
     19     (3,1,4)               0.0000000      UZF19                                   
     20     (3,1,5)               0.0000000      UZF20                                   
     21     (3,1,6)               0.0000000      UZF21                                   
     22     (3,1,7)               0.0000000      UZF22                                   
     23     (3,1,8)               0.0000000      UZF23                                   
     24     (3,1,9)               0.0000000      UZF24                                   
 ----------------------------------------------------------------------------------------




 UZF-1 PACKAGE - SUMMARY OF FLOWS FOR EACH CONTROL VOLUME   PERIOD      5   STEP       16
 ----------------------------------------------------------------------------------------------------------------------------------------------------
                                                                                                                                           PERCENT   
   NUMBER   CELLID                  INFLOW      OUTFLOW        GWF      INFILTRATION   REJ INF        UZET       STORAGE      IN - OUT    DIFFERENCE 
 ----------------------------------------------------------------------------------------------------------------------------------------------------
     1      (1,1,2)               0.0000      -1.1760       0.0000       0.0000       0.0000       0.0000       1.1760       2.33147E-14  1.98249E-12
     2      (1,1,3)               0.0000      -1.1760       0.0000       0.0000       0.0000       0.0000       1.1760       2.33147E-14  1.98249E-12
     3      (1,1,4)               0.0000      -1.1760       0.0000       0.0000       0.0000       0.0000       1.1760       2.33147E-14  1.98249E-12
     4      (1,1,5)               0.0000      -1.1760       0.0000       0.0000       0.0000       0.0000       1.1760       2.33147E-14  1.98249E-12
     5      (1,1,6)               0.0000      -1.1760       0.0000       0.0000       0.0000       0.0000       1.1760       2.33147E-14  1.98249E-12
     6      (1,1,7)               0.0000      -1.1760       0.0000       0.0000       0.0000       0.0000       1.1760       2.33147E-14  1.98249E-12
     7      (1,1,8)               0.0000      -1.1760       0.0000       0.0000       0.0000       0.0000       1.1760       2.33147E-14  1.98249E-12
     8      (1,1,9)               0.0000      -1.1760       0.0000       0.0000       0.0000       0.0000       1.1760       2.33147E-14  1.98249E-12
     9      (2,1,2)               1.1760      -15.224       0.0000       0.0000       0.0000      -5.39527E-02  14.102       2.00064E-04  1.30951E-03
     10     (2,1,3)               1.1760      -15.224       0.0000       0.0000       0.0000      -5.39527E-02  14.102       2.00064E-04  1.30951E-03
     11     (2,1,4)               1.1760      -15.224       0.0000       0.0000       0.0000      -5.39527E-02  14.102       2.00064E-04  1.30951E-03
     12     (2,1,5)               1.1760      -15.224       0.0000       0.0000       0.0000      -5.39527E-02  14.102       2.00064E-04  1.30951E-03
     13     (2,1,6)               1.1760      -15.224       0.0000       0.0000       0.0000      -5.39527E-02  14.102       2.00064E-04  1.30951E-03
     14     (2,1,7)               1.1760      -15.224       0.0000       0.0000       0.0000      -5.39527E-02  14.102       2.00064E-04  1.30951E-03
     15     (2,1,8)               1.1760      -15.224       0.0000       0.0000       0.0000      -5.39527E-02  14.102       2.00064E-04  1.30951E-03
     16     (2,1,9)               1.1760      -15.224       0.0000       0.0000       0.0000      -5.39527E-02  14.102       2.00064E-04  1.30951E-03
     17     (3,1,2)               15.224       0.0000       0.0000       0.0000       0.0000       0.0000      -15.224       1.82742E-06  1.20038E-05
     18     (3,1,3)               15.224       0.0000       0.0000       0.0000       0.0000       0.0000      -15.224       1.82742E-06  1.20038E-05
     19     (3,1,4)               15.224       0.0000       0.0000       0.0000       0.0000       0.0000      -15.224       1.82742E-06  1.20038E-05
     20     (3,1,5)               15.224       0.0000       0.0000       0.0000       0.0000       0.0000      -15.224       1.82742E-06  1.20038E-05
     21     (3,1,6)               15.224       0.0000       0.0000       0.0000       0.0000       0.0000      -15.224       1.82742E-06  1.20038E-05
     22     (3,1,7)               15.224       0.0000       0.0000       0.0000       0.0000       0.0000      -15.224       1.82742E-06  1.20038E-05
     23     (3,1,8)               15.224       0.0000       0.0000       0.0000       0.0000       0.0000      -15.224       1.82742E-06  1.20038E-05
     24     (3,1,9)               15.224       0.0000       0.0000       0.0000       0.0000       0.0000      -15.224       1.82742E-06  1.20038E-05
 ----------------------------------------------------------------------------------------------------------------------------------------------------


1
  HEAD IN LAYER   1 AT END OF TIME STEP  16 IN STRESS PERIOD    5
  ---------------------------------------------------------------------------

            1           2           3           4           5           6           7           8           9          10
 ........................................................................................................................
   1   -25.00      -25.00      -25.00      -25.00      -25.00      -25.00      -25.00      -25.00      -25.00      -25.00    
1
  HEAD IN LAYER   2 AT END OF TIME STEP  16 IN STRESS PERIOD    5
  ---------------------------------------------------------------------------

            1           2           3           4           5           6           7           8           9          10
 ........................................................................................................................
   1   -25.00      -25.00      -25.00      -25.00      -25.00      -25.00      -25.00      -25.00      -25.00      -25.00    
1
  HEAD IN LAYER   3 AT END OF TIME STEP  16 IN STRESS PERIOD    5
  ---------------------------------------------------------------------------

            1           2           3           4           5           6           7           8           9          10
 ........................................................................................................................
   1   -25.00      -25.00      -25.00      -25.00      -25.00      -25.00      -25.00      -25.00      -25.00      -25.00    

 HEAD WILL BE SAVED ON UNIT 1022 AT END OF TIME STEP   16, STRESS PERIOD    5


  UZF-1 BUDGET FOR ENTIRE MODEL AT END OF TIME STEP   16, STRESS PERIOD   5
  ------------------------------------------------------------------------------

     CUMULATIVE UZF-1      L**3       RATES FOR THIS TIME STEP      L**3/T
     ------------------                 ------------------------

           IN:                                      IN:
           ---                                      ---
                 GWF =           0.0000                   GWF =           0.0000
        INFILTRATION =      480000.0000          INFILTRATION =           0.0000
             REJ-INF =           0.0000               REJ-INF =           0.0000
                UZET =           0.0000                  UZET =           0.0000
             STORAGE =      382375.3483               STORAGE =         122.2229

            TOTAL IN =      862375.3483              TOTAL IN =         122.2229

          OUT:                                     OUT:
          ----                                     ----
                 GWF =           0.0000                   GWF =           0.0000
        INFILTRATION =           0.0000          INFILTRATION =           0.0000
             REJ-INF =           0.0000               REJ-INF =           0.0000
                UZET =         612.4391                  UZET =           0.4316
             STORAGE =      861705.2639               STORAGE =         121.7897

           TOTAL OUT =      862317.7030             TOTAL OUT =         122.2213

            IN - OUT =          57.6453              IN - OUT =       1.6151E-03

 PERCENT DISCREPANCY =           0.01     PERCENT DISCREPANCY =           0.00



  VOLUME BUDGET FOR ENTIRE MODEL AT END OF TIME STEP   16, STRESS PERIOD   5
  ---------------------------------------------------------------------------------------------------

     CUMULATIVE VOLUME      L**3       RATES FOR THIS TIME STEP      L**3/T          PACKAGE NAME    
     ------------------                 ------------------------                     ----------------

           IN:                                      IN:
           ---                                      ---
              STO-SS =           0.0000                STO-SS =           0.0000     STORAGE         
              STO-SY =           0.0000                STO-SY =           0.0000     STORAGE         
                 CHD =           0.0000                   CHD =           0.0000     CHD-1           
           UZF-GWRCH =           0.0000             UZF-GWRCH =           0.0000     UZF-1           
             UZF-GWD =           0.0000               UZF-GWD =           0.0000     UZF-1           
            UZF-GWET =           0.0000              UZF-GWET =           0.0000     UZF-1           

            TOTAL IN =           0.0000              TOTAL IN =           0.0000

          OUT:                                     OUT:
          ----                                     ----
              STO-SS =           0.0000                STO-SS =           0.0000     STORAGE         
              STO-SY =           0.0000                STO-SY =           0.0000     STORAGE         
                 CHD =           0.0000                   CHD =           0.0000     CHD-1           
           UZF-GWRCH =           0.0000             UZF-GWRCH =           0.0000     UZF-1           
             UZF-GWD =           0.0000               UZF-GWD =           0.0000     UZF-1           
            UZF-GWET =           0.0000              UZF-GWET =           0.0000     UZF-1           

           TOTAL OUT =           0.0000             TOTAL OUT =           0.0000

            IN - OUT =           0.0000              IN - OUT =           0.0000

 PERCENT DISCREPANCY =           0.00     PERCENT DISCREPANCY =           0.00




         TIME SUMMARY AT END OF TIME STEP   16 IN STRESS PERIOD    5
                    SECONDS     MINUTES      HOURS       DAYS        YEARS
                    -----------------------------------------------------------
   TIME STEP LENGTH 3.45600E+06  57600.      960.00      40.000     0.10951    
 STRESS PERIOD TIME 5.52960E+07 9.21600E+05  15360.      640.00      1.7522    
         TOTAL TIME 1.03680E+08 1.72800E+06  28800.      1200.0      3.2854    


end timestep


start timestep kper="5" kstp="17" mode="normal"

 UBDSV1 SAVING     FLOW-JA-FACE ON UNIT   1020 AT TIME STEP     17, STRESS PERIOD      5
 UBDSV06 SAVING     FLOW-JA-FACE IN MODEL GWF_1            PACKAGE UZF-1           CONNECTED TO MODEL GWF_1            PACKAGE UZF-1            ON UNIT   1014 AT TIME STEP     17, STRESS PERIOD      5
 UBDSV06 SAVING              GWF IN MODEL GWF_1            PACKAGE UZF-1           CONNECTED TO MODEL GWF_1            PACKAGE GWF_1            ON UNIT   1014 AT TIME STEP     17, STRESS PERIOD      5
 UBDSV06 SAVING     INFILTRATION IN MODEL GWF_1            PACKAGE UZF-1           CONNECTED TO MODEL GWF_1            PACKAGE UZF-1            ON UNIT   1014 AT TIME STEP     17, STRESS PERIOD      5
 UBDSV06 SAVING          REJ-INF IN MODEL GWF_1            PACKAGE UZF-1           CONNECTED TO MODEL GWF_1            PACKAGE UZF-1            ON UNIT   1014 AT TIME STEP     17, STRESS PERIOD      5
 UBDSV06 SAVING             UZET IN MODEL GWF_1            PACKAGE UZF-1           CONNECTED TO MODEL GWF_1            PACKAGE UZF-1            ON UNIT   1014 AT TIME STEP     17, STRESS PERIOD      5
 UBDSV06 SAVING          STORAGE IN MODEL GWF_1            PACKAGE UZF-1           CONNECTED TO MODEL GWF_1            PACKAGE UZF-1            ON UNIT   1014 AT TIME STEP     17, STRESS PERIOD      5

 CHD PACKAGE (CHD-1) FLOW RATES   PERIOD      5   STEP       17
 -----------------------------------------------
   NUMBER   CELLID                    RATE      
 -----------------------------------------------
     1      (3,1,1)               0.0000000     
     2      (3,1,10)              0.0000000     
 -----------------------------------------------




 UZF-GWRCH PACKAGE (UZF-1) FLOW RATES   PERIOD      5   STEP       17
 ----------------------------------------------------------------------------------------
   NUMBER   CELLID                    RATE       NAME                                    
 ----------------------------------------------------------------------------------------
     1      (1,1,2)               0.0000000      UZF01                                   
     2      (1,1,3)               0.0000000      UZF02                                   
     3      (1,1,4)               0.0000000      UZF03                                   
     4      (1,1,5)               0.0000000      UZF04                                   
     5      (1,1,6)               0.0000000      UZF05                                   
     6      (1,1,7)               0.0000000      UZF06                                   
     7      (1,1,8)               0.0000000      UZF07                                   
     8      (1,1,9)               0.0000000      UZF08                                   
     9      (2,1,2)               0.0000000      UZF08                                   
     10     (2,1,3)               0.0000000      UZF10                                   
     11     (2,1,4)               0.0000000      UZF11                                   
     12     (2,1,5)               0.0000000      UZF12                                   
     13     (2,1,6)               0.0000000      UZF13                                   
     14     (2,1,7)               0.0000000      UZF14                                   
     15     (2,1,8)               0.0000000      UZF15                                   
     16     (2,1,9)               0.0000000      UZF16                                   
     17     (3,1,2)               0.0000000      UZF17                                   
     18     (3,1,3)               0.0000000      UZF18                                   
     19     (3,1,4)               0.0000000      UZF19                                   
     20     (3,1,5)               0.0000000      UZF20                                   
     21     (3,1,6)               0.0000000      UZF21                                   
     22     (3,1,7)               0.0000000      UZF22                                   
     23     (3,1,8)               0.0000000      UZF23                                   
     24     (3,1,9)               0.0000000      UZF24                                   
 ----------------------------------------------------------------------------------------




 UZF-GWD PACKAGE (UZF-1) FLOW RATES   PERIOD      5   STEP       17
 ----------------------------------------------------------------------------------------
   NUMBER   CELLID                    RATE       NAME                                    
 ----------------------------------------------------------------------------------------
     1      (1,1,2)               0.0000000      UZF01                                   
     2      (1,1,3)               0.0000000      UZF02                                   
     3      (1,1,4)               0.0000000      UZF03                                   
     4      (1,1,5)               0.0000000      UZF04                                   
     5      (1,1,6)               0.0000000      UZF05                                   
     6      (1,1,7)               0.0000000      UZF06                                   
     7      (1,1,8)               0.0000000      UZF07                                   
     8      (1,1,9)               0.0000000      UZF08                                   
     9      (2,1,2)               0.0000000      UZF08                                   
     10     (2,1,3)               0.0000000      UZF10                                   
     11     (2,1,4)               0.0000000      UZF11                                   
     12     (2,1,5)               0.0000000      UZF12                                   
     13     (2,1,6)               0.0000000      UZF13                                   
     14     (2,1,7)               0.0000000      UZF14                                   
     15     (2,1,8)               0.0000000      UZF15                                   
     16     (2,1,9)               0.0000000      UZF16                                   
     17     (3,1,2)               0.0000000      UZF17                                   
     18     (3,1,3)               0.0000000      UZF18                                   
     19     (3,1,4)               0.0000000      UZF19                                   
     20     (3,1,5)               0.0000000      UZF20                                   
     21     (3,1,6)               0.0000000      UZF21                                   
     22     (3,1,7)               0.0000000      UZF22                                   
     23     (3,1,8)               0.0000000      UZF23                                   
     24     (3,1,9)               0.0000000      UZF24                                   
 ----------------------------------------------------------------------------------------




 UZF-GWET PACKAGE (UZF-1) FLOW RATES   PERIOD      5   STEP       17
 ----------------------------------------------------------------------------------------
   NUMBER   CELLID                    RATE       NAME                                    
 ----------------------------------------------------------------------------------------
     1      (1,1,2)               0.0000000      UZF01                                   
     2      (1,1,3)               0.0000000      UZF02                                   
     3      (1,1,4)               0.0000000      UZF03                                   
     4      (1,1,5)               0.0000000      UZF04                                   
     5      (1,1,6)               0.0000000      UZF05                                   
     6      (1,1,7)               0.0000000      UZF06                                   
     7      (1,1,8)               0.0000000      UZF07                                   
     8      (1,1,9)               0.0000000      UZF08                                   
     9      (2,1,2)               0.0000000      UZF08                                   
     10     (2,1,3)               0.0000000      UZF10                                   
     11     (2,1,4)               0.0000000      UZF11                                   
     12     (2,1,5)               0.0000000      UZF12                                   
     13     (2,1,6)               0.0000000      UZF13                                   
     14     (2,1,7)               0.0000000      UZF14                                   
     15     (2,1,8)               0.0000000      UZF15                                   
     16     (2,1,9)               0.0000000      UZF16                                   
     17     (3,1,2)               0.0000000      UZF17                                   
     18     (3,1,3)               0.0000000      UZF18                                   
     19     (3,1,4)               0.0000000      UZF19                                   
     20     (3,1,5)               0.0000000      UZF20                                   
     21     (3,1,6)               0.0000000      UZF21                                   
     22     (3,1,7)               0.0000000      UZF22                                   
     23     (3,1,8)               0.0000000      UZF23                                   
     24     (3,1,9)               0.0000000      UZF24                                   
 ----------------------------------------------------------------------------------------




 UZF-1 PACKAGE - SUMMARY OF FLOWS FOR EACH CONTROL VOLUME   PERIOD      5   STEP       17
 ----------------------------------------------------------------------------------------------------------------------------------------------------
                                                                                                                                           PERCENT   
   NUMBER   CELLID                  INFLOW      OUTFLOW        GWF      INFILTRATION   REJ INF        UZET       STORAGE      IN - OUT    DIFFERENCE 
 ----------------------------------------------------------------------------------------------------------------------------------------------------
     1      (1,1,2)               0.0000      -1.1760       0.0000       0.0000       0.0000       0.0000       1.1760       2.33147E-14  1.98249E-12
     2      (1,1,3)               0.0000      -1.1760       0.0000       0.0000       0.0000       0.0000       1.1760       2.33147E-14  1.98249E-12
     3      (1,1,4)               0.0000      -1.1760       0.0000       0.0000       0.0000       0.0000       1.1760       2.33147E-14  1.98249E-12
     4      (1,1,5)               0.0000      -1.1760       0.0000       0.0000       0.0000       0.0000       1.1760       2.33147E-14  1.98249E-12
     5      (1,1,6)               0.0000      -1.1760       0.0000       0.0000       0.0000       0.0000       1.1760       2.33147E-14  1.98249E-12
     6      (1,1,7)               0.0000      -1.1760       0.0000       0.0000       0.0000       0.0000       1.1760       2.33147E-14  1.98249E-12
     7      (1,1,8)               0.0000      -1.1760       0.0000       0.0000       0.0000       0.0000       1.1760       2.33147E-14  1.98249E-12
     8      (1,1,9)               0.0000      -1.1760       0.0000       0.0000       0.0000       0.0000       1.1760       2.33147E-14  1.98249E-12
     9      (2,1,2)               1.1760      -15.219       0.0000       0.0000       0.0000      -5.28829E-02  14.096       2.11116E-04  1.38239E-03
     10     (2,1,3)               1.1760      -15.219       0.0000       0.0000       0.0000      -5.28829E-02  14.096       2.11116E-04  1.38239E-03
     11     (2,1,4)               1.1760      -15.219       0.0000       0.0000       0.0000      -5.28829E-02  14.096       2.11116E-04  1.38239E-03
     12     (2,1,5)               1.1760      -15.219       0.0000       0.0000       0.0000      -5.28829E-02  14.096       2.11116E-04  1.38239E-03
     13     (2,1,6)               1.1760      -15.219       0.0000       0.0000       0.0000      -5.28829E-02  14.096       2.11116E-04  1.38239E-03
     14     (2,1,7)               1.1760      -15.219       0.0000       0.0000       0.0000      -5.28829E-02  14.096       2.11116E-04  1.38239E-03
     15     (2,1,8)               1.1760      -15.219       0.0000       0.0000       0.0000      -5.28829E-02  14.096       2.11116E-04  1.38239E-03
     16     (2,1,9)               1.1760      -15.219       0.0000       0.0000       0.0000      -5.28829E-02  14.096       2.11116E-04  1.38239E-03
     17     (3,1,2)               15.219       0.0000       0.0000       0.0000       0.0000       0.0000      -15.219       1.82698E-06  1.20047E-05
     18     (3,1,3)               15.219       0.0000       0.0000       0.0000       0.0000       0.0000      -15.219       1.82698E-06  1.20047E-05
     19     (3,1,4)               15.219       0.0000       0.0000       0.0000       0.0000       0.0000      -15.219       1.82698E-06  1.20047E-05
     20     (3,1,5)               15.219       0.0000       0.0000       0.0000       0.0000       0.0000      -15.219       1.82698E-06  1.20047E-05
     21     (3,1,6)               15.219       0.0000       0.0000       0.0000       0.0000       0.0000      -15.219       1.82698E-06  1.20047E-05
     22     (3,1,7)               15.219       0.0000       0.0000       0.0000       0.0000       0.0000      -15.219       1.82698E-06  1.20047E-05
     23     (3,1,8)               15.219       0.0000       0.0000       0.0000       0.0000       0.0000      -15.219       1.82698E-06  1.20047E-05
     24     (3,1,9)               15.219       0.0000       0.0000       0.0000       0.0000       0.0000      -15.219       1.82698E-06  1.20047E-05
 ----------------------------------------------------------------------------------------------------------------------------------------------------


1
  HEAD IN LAYER   1 AT END OF TIME STEP  17 IN STRESS PERIOD    5
  ---------------------------------------------------------------------------

            1           2           3           4           5           6           7           8           9          10
 ........................................................................................................................
   1   -25.00      -25.00      -25.00      -25.00      -25.00      -25.00      -25.00      -25.00      -25.00      -25.00    
1
  HEAD IN LAYER   2 AT END OF TIME STEP  17 IN STRESS PERIOD    5
  ---------------------------------------------------------------------------

            1           2           3           4           5           6           7           8           9          10
 ........................................................................................................................
   1   -25.00      -25.00      -25.00      -25.00      -25.00      -25.00      -25.00      -25.00      -25.00      -25.00    
1
  HEAD IN LAYER   3 AT END OF TIME STEP  17 IN STRESS PERIOD    5
  ---------------------------------------------------------------------------

            1           2           3           4           5           6           7           8           9          10
 ........................................................................................................................
   1   -25.00      -25.00      -25.00      -25.00      -25.00      -25.00      -25.00      -25.00      -25.00      -25.00    

 HEAD WILL BE SAVED ON UNIT 1022 AT END OF TIME STEP   17, STRESS PERIOD    5


  UZF-1 BUDGET FOR ENTIRE MODEL AT END OF TIME STEP   17, STRESS PERIOD   5
  ------------------------------------------------------------------------------

     CUMULATIVE UZF-1      L**3       RATES FOR THIS TIME STEP      L**3/T
     ------------------                 ------------------------

           IN:                                      IN:
           ---                                      ---
                 GWF =           0.0000                   GWF =           0.0000
        INFILTRATION =      480000.0000          INFILTRATION =           0.0000
             REJ-INF =           0.0000               REJ-INF =           0.0000
                UZET =           0.0000                  UZET =           0.0000
             STORAGE =      387262.3690               STORAGE =         122.1755

            TOTAL IN =      867262.3690              TOTAL IN =         122.1755

          OUT:                                     OUT:
          ----                                     ----
                 GWF =           0.0000                   GWF =           0.0000
        INFILTRATION =           0.0000          INFILTRATION =           0.0000
             REJ-INF =           0.0000               REJ-INF =           0.0000
                UZET =         629.3616                  UZET =           0.4231
             STORAGE =      866575.2939               STORAGE =         121.7508

           TOTAL OUT =      867204.6555             TOTAL OUT =         122.1738

            IN - OUT =          57.7135              IN - OUT =       1.7035E-03

 PERCENT DISCREPANCY =           0.01     PERCENT DISCREPANCY =           0.00



  VOLUME BUDGET FOR ENTIRE MODEL AT END OF TIME STEP   17, STRESS PERIOD   5
  ---------------------------------------------------------------------------------------------------

     CUMULATIVE VOLUME      L**3       RATES FOR THIS TIME STEP      L**3/T          PACKAGE NAME    
     ------------------                 ------------------------                     ----------------

           IN:                                      IN:
           ---                                      ---
              STO-SS =           0.0000                STO-SS =           0.0000     STORAGE         
              STO-SY =           0.0000                STO-SY =           0.0000     STORAGE         
                 CHD =           0.0000                   CHD =           0.0000     CHD-1           
           UZF-GWRCH =           0.0000             UZF-GWRCH =           0.0000     UZF-1           
             UZF-GWD =           0.0000               UZF-GWD =           0.0000     UZF-1           
            UZF-GWET =           0.0000              UZF-GWET =           0.0000     UZF-1           

            TOTAL IN =           0.0000              TOTAL IN =           0.0000

          OUT:                                     OUT:
          ----                                     ----
              STO-SS =           0.0000                STO-SS =           0.0000     STORAGE         
              STO-SY =           0.0000                STO-SY =           0.0000     STORAGE         
                 CHD =           0.0000                   CHD =           0.0000     CHD-1           
           UZF-GWRCH =           0.0000             UZF-GWRCH =           0.0000     UZF-1           
             UZF-GWD =           0.0000               UZF-GWD =           0.0000     UZF-1           
            UZF-GWET =           0.0000              UZF-GWET =           0.0000     UZF-1           

           TOTAL OUT =           0.0000             TOTAL OUT =           0.0000

            IN - OUT =           0.0000              IN - OUT =           0.0000

 PERCENT DISCREPANCY =           0.00     PERCENT DISCREPANCY =           0.00




         TIME SUMMARY AT END OF TIME STEP   17 IN STRESS PERIOD    5
                    SECONDS     MINUTES      HOURS       DAYS        YEARS
                    -----------------------------------------------------------
   TIME STEP LENGTH 3.45600E+06  57600.      960.00      40.000     0.10951    
 STRESS PERIOD TIME 5.87520E+07 9.79200E+05  16320.      680.00      1.8617    
         TOTAL TIME 1.07136E+08 1.78560E+06  29760.      1240.0      3.3949    


end timestep


start timestep kper="5" kstp="18" mode="normal"

 UBDSV1 SAVING     FLOW-JA-FACE ON UNIT   1020 AT TIME STEP     18, STRESS PERIOD      5
 UBDSV06 SAVING     FLOW-JA-FACE IN MODEL GWF_1            PACKAGE UZF-1           CONNECTED TO MODEL GWF_1            PACKAGE UZF-1            ON UNIT   1014 AT TIME STEP     18, STRESS PERIOD      5
 UBDSV06 SAVING              GWF IN MODEL GWF_1            PACKAGE UZF-1           CONNECTED TO MODEL GWF_1            PACKAGE GWF_1            ON UNIT   1014 AT TIME STEP     18, STRESS PERIOD      5
 UBDSV06 SAVING     INFILTRATION IN MODEL GWF_1            PACKAGE UZF-1           CONNECTED TO MODEL GWF_1            PACKAGE UZF-1            ON UNIT   1014 AT TIME STEP     18, STRESS PERIOD      5
 UBDSV06 SAVING          REJ-INF IN MODEL GWF_1            PACKAGE UZF-1           CONNECTED TO MODEL GWF_1            PACKAGE UZF-1            ON UNIT   1014 AT TIME STEP     18, STRESS PERIOD      5
 UBDSV06 SAVING             UZET IN MODEL GWF_1            PACKAGE UZF-1           CONNECTED TO MODEL GWF_1            PACKAGE UZF-1            ON UNIT   1014 AT TIME STEP     18, STRESS PERIOD      5
 UBDSV06 SAVING          STORAGE IN MODEL GWF_1            PACKAGE UZF-1           CONNECTED TO MODEL GWF_1            PACKAGE UZF-1            ON UNIT   1014 AT TIME STEP     18, STRESS PERIOD      5

 CHD PACKAGE (CHD-1) FLOW RATES   PERIOD      5   STEP       18
 -----------------------------------------------
   NUMBER   CELLID                    RATE      
 -----------------------------------------------
     1      (3,1,1)               0.0000000     
     2      (3,1,10)              0.0000000     
 -----------------------------------------------




 UZF-GWRCH PACKAGE (UZF-1) FLOW RATES   PERIOD      5   STEP       18
 ----------------------------------------------------------------------------------------
   NUMBER   CELLID                    RATE       NAME                                    
 ----------------------------------------------------------------------------------------
     1      (1,1,2)               0.0000000      UZF01                                   
     2      (1,1,3)               0.0000000      UZF02                                   
     3      (1,1,4)               0.0000000      UZF03                                   
     4      (1,1,5)               0.0000000      UZF04                                   
     5      (1,1,6)               0.0000000      UZF05                                   
     6      (1,1,7)               0.0000000      UZF06                                   
     7      (1,1,8)               0.0000000      UZF07                                   
     8      (1,1,9)               0.0000000      UZF08                                   
     9      (2,1,2)               0.0000000      UZF08                                   
     10     (2,1,3)               0.0000000      UZF10                                   
     11     (2,1,4)               0.0000000      UZF11                                   
     12     (2,1,5)               0.0000000      UZF12                                   
     13     (2,1,6)               0.0000000      UZF13                                   
     14     (2,1,7)               0.0000000      UZF14                                   
     15     (2,1,8)               0.0000000      UZF15                                   
     16     (2,1,9)               0.0000000      UZF16                                   
     17     (3,1,2)               0.0000000      UZF17                                   
     18     (3,1,3)               0.0000000      UZF18                                   
     19     (3,1,4)               0.0000000      UZF19                                   
     20     (3,1,5)               0.0000000      UZF20                                   
     21     (3,1,6)               0.0000000      UZF21                                   
     22     (3,1,7)               0.0000000      UZF22                                   
     23     (3,1,8)               0.0000000      UZF23                                   
     24     (3,1,9)               0.0000000      UZF24                                   
 ----------------------------------------------------------------------------------------




 UZF-GWD PACKAGE (UZF-1) FLOW RATES   PERIOD      5   STEP       18
 ----------------------------------------------------------------------------------------
   NUMBER   CELLID                    RATE       NAME                                    
 ----------------------------------------------------------------------------------------
     1      (1,1,2)               0.0000000      UZF01                                   
     2      (1,1,3)               0.0000000      UZF02                                   
     3      (1,1,4)               0.0000000      UZF03                                   
     4      (1,1,5)               0.0000000      UZF04                                   
     5      (1,1,6)               0.0000000      UZF05                                   
     6      (1,1,7)               0.0000000      UZF06                                   
     7      (1,1,8)               0.0000000      UZF07                                   
     8      (1,1,9)               0.0000000      UZF08                                   
     9      (2,1,2)               0.0000000      UZF08                                   
     10     (2,1,3)               0.0000000      UZF10                                   
     11     (2,1,4)               0.0000000      UZF11                                   
     12     (2,1,5)               0.0000000      UZF12                                   
     13     (2,1,6)               0.0000000      UZF13                                   
     14     (2,1,7)               0.0000000      UZF14                                   
     15     (2,1,8)               0.0000000      UZF15                                   
     16     (2,1,9)               0.0000000      UZF16                                   
     17     (3,1,2)               0.0000000      UZF17                                   
     18     (3,1,3)               0.0000000      UZF18                                   
     19     (3,1,4)               0.0000000      UZF19                                   
     20     (3,1,5)               0.0000000      UZF20                                   
     21     (3,1,6)               0.0000000      UZF21                                   
     22     (3,1,7)               0.0000000      UZF22                                   
     23     (3,1,8)               0.0000000      UZF23                                   
     24     (3,1,9)               0.0000000      UZF24                                   
 ----------------------------------------------------------------------------------------




 UZF-GWET PACKAGE (UZF-1) FLOW RATES   PERIOD      5   STEP       18
 ----------------------------------------------------------------------------------------
   NUMBER   CELLID                    RATE       NAME                                    
 ----------------------------------------------------------------------------------------
     1      (1,1,2)               0.0000000      UZF01                                   
     2      (1,1,3)               0.0000000      UZF02                                   
     3      (1,1,4)               0.0000000      UZF03                                   
     4      (1,1,5)               0.0000000      UZF04                                   
     5      (1,1,6)               0.0000000      UZF05                                   
     6      (1,1,7)               0.0000000      UZF06                                   
     7      (1,1,8)               0.0000000      UZF07                                   
     8      (1,1,9)               0.0000000      UZF08                                   
     9      (2,1,2)               0.0000000      UZF08                                   
     10     (2,1,3)               0.0000000      UZF10                                   
     11     (2,1,4)               0.0000000      UZF11                                   
     12     (2,1,5)               0.0000000      UZF12                                   
     13     (2,1,6)               0.0000000      UZF13                                   
     14     (2,1,7)               0.0000000      UZF14                                   
     15     (2,1,8)               0.0000000      UZF15                                   
     16     (2,1,9)               0.0000000      UZF16                                   
     17     (3,1,2)               0.0000000      UZF17                                   
     18     (3,1,3)               0.0000000      UZF18                                   
     19     (3,1,4)               0.0000000      UZF19                                   
     20     (3,1,5)               0.0000000      UZF20                                   
     21     (3,1,6)               0.0000000      UZF21                                   
     22     (3,1,7)               0.0000000      UZF22                                   
     23     (3,1,8)               0.0000000      UZF23                                   
     24     (3,1,9)               0.0000000      UZF24                                   
 ----------------------------------------------------------------------------------------




 UZF-1 PACKAGE - SUMMARY OF FLOWS FOR EACH CONTROL VOLUME   PERIOD      5   STEP       18
 ----------------------------------------------------------------------------------------------------------------------------------------------------
                                                                                                                                           PERCENT   
   NUMBER   CELLID                  INFLOW      OUTFLOW        GWF      INFILTRATION   REJ INF        UZET       STORAGE      IN - OUT    DIFFERENCE 
 ----------------------------------------------------------------------------------------------------------------------------------------------------
     1      (1,1,2)               0.0000      -1.1760       0.0000       0.0000       0.0000       0.0000       1.1760       2.33147E-14  1.98249E-12
     2      (1,1,3)               0.0000      -1.1760       0.0000       0.0000       0.0000       0.0000       1.1760       2.33147E-14  1.98249E-12
     3      (1,1,4)               0.0000      -1.1760       0.0000       0.0000       0.0000       0.0000       1.1760       2.33147E-14  1.98249E-12
     4      (1,1,5)               0.0000      -1.1760       0.0000       0.0000       0.0000       0.0000       1.1760       2.33147E-14  1.98249E-12
     5      (1,1,6)               0.0000      -1.1760       0.0000       0.0000       0.0000       0.0000       1.1760       2.33147E-14  1.98249E-12
     6      (1,1,7)               0.0000      -1.1760       0.0000       0.0000       0.0000       0.0000       1.1760       2.33147E-14  1.98249E-12
     7      (1,1,8)               0.0000      -1.1760       0.0000       0.0000       0.0000       0.0000       1.1760       2.33147E-14  1.98249E-12
     8      (1,1,9)               0.0000      -1.1760       0.0000       0.0000       0.0000       0.0000       1.1760       2.33147E-14  1.98249E-12
     9      (2,1,2)               1.1760      -15.214       0.0000       0.0000       0.0000      -5.18131E-02  14.090       2.21739E-04  1.45251E-03
     10     (2,1,3)               1.1760      -15.214       0.0000       0.0000       0.0000      -5.18131E-02  14.090       2.21739E-04  1.45251E-03
     11     (2,1,4)               1.1760      -15.214       0.0000       0.0000       0.0000      -5.18131E-02  14.090       2.21739E-04  1.45251E-03
     12     (2,1,5)               1.1760      -15.214       0.0000       0.0000       0.0000      -5.18131E-02  14.090       2.21739E-04  1.45251E-03
     13     (2,1,6)               1.1760      -15.214       0.0000       0.0000       0.0000      -5.18131E-02  14.090       2.21739E-04  1.45251E-03
     14     (2,1,7)               1.1760      -15.214       0.0000       0.0000       0.0000      -5.18131E-02  14.090       2.21739E-04  1.45251E-03
     15     (2,1,8)               1.1760      -15.214       0.0000       0.0000       0.0000      -5.18131E-02  14.090       2.21739E-04  1.45251E-03
     16     (2,1,9)               1.1760      -15.214       0.0000       0.0000       0.0000      -5.18131E-02  14.090       2.21739E-04  1.45251E-03
     17     (3,1,2)               15.214       0.0000       0.0000       0.0000       0.0000       0.0000      -15.214       1.82654E-06  1.20057E-05
     18     (3,1,3)               15.214       0.0000       0.0000       0.0000       0.0000       0.0000      -15.214       1.82654E-06  1.20057E-05
     19     (3,1,4)               15.214       0.0000       0.0000       0.0000       0.0000       0.0000      -15.214       1.82654E-06  1.20057E-05
     20     (3,1,5)               15.214       0.0000       0.0000       0.0000       0.0000       0.0000      -15.214       1.82654E-06  1.20057E-05
     21     (3,1,6)               15.214       0.0000       0.0000       0.0000       0.0000       0.0000      -15.214       1.82654E-06  1.20057E-05
     22     (3,1,7)               15.214       0.0000       0.0000       0.0000       0.0000       0.0000      -15.214       1.82654E-06  1.20057E-05
     23     (3,1,8)               15.214       0.0000       0.0000       0.0000       0.0000       0.0000      -15.214       1.82654E-06  1.20057E-05
     24     (3,1,9)               15.214       0.0000       0.0000       0.0000       0.0000       0.0000      -15.214       1.82654E-06  1.20057E-05
 ----------------------------------------------------------------------------------------------------------------------------------------------------


1
  HEAD IN LAYER   1 AT END OF TIME STEP  18 IN STRESS PERIOD    5
  ---------------------------------------------------------------------------

            1           2           3           4           5           6           7           8           9          10
 ........................................................................................................................
   1   -25.00      -25.00      -25.00      -25.00      -25.00      -25.00      -25.00      -25.00      -25.00      -25.00    
1
  HEAD IN LAYER   2 AT END OF TIME STEP  18 IN STRESS PERIOD    5
  ---------------------------------------------------------------------------

            1           2           3           4           5           6           7           8           9          10
 ........................................................................................................................
   1   -25.00      -25.00      -25.00      -25.00      -25.00      -25.00      -25.00      -25.00      -25.00      -25.00    
1
  HEAD IN LAYER   3 AT END OF TIME STEP  18 IN STRESS PERIOD    5
  ---------------------------------------------------------------------------

            1           2           3           4           5           6           7           8           9          10
 ........................................................................................................................
   1   -25.00      -25.00      -25.00      -25.00      -25.00      -25.00      -25.00      -25.00      -25.00      -25.00    

 HEAD WILL BE SAVED ON UNIT 1022 AT END OF TIME STEP   18, STRESS PERIOD    5


  UZF-1 BUDGET FOR ENTIRE MODEL AT END OF TIME STEP   18, STRESS PERIOD   5
  ------------------------------------------------------------------------------

     CUMULATIVE UZF-1      L**3       RATES FOR THIS TIME STEP      L**3/T
     ------------------                 ------------------------

           IN:                                      IN:
           ---                                      ---
                 GWF =           0.0000                   GWF =           0.0000
        INFILTRATION =      480000.0000          INFILTRATION =           0.0000
             REJ-INF =           0.0000               REJ-INF =           0.0000
                UZET =           0.0000                  UZET =           0.0000
             STORAGE =      392147.4942               STORAGE =         122.1281

            TOTAL IN =      872147.4942              TOTAL IN =         122.1281

          OUT:                                     OUT:
          ----                                     ----
                 GWF =           0.0000                   GWF =           0.0000
        INFILTRATION =           0.0000          INFILTRATION =           0.0000
             REJ-INF =           0.0000               REJ-INF =           0.0000
                UZET =         645.9418                  UZET =           0.4145
             STORAGE =      871443.7674               STORAGE =         121.7118

           TOTAL OUT =      872089.7092             TOTAL OUT =         122.1263

            IN - OUT =          57.7850              IN - OUT =       1.7885E-03

 PERCENT DISCREPANCY =           0.01     PERCENT DISCREPANCY =           0.00



  VOLUME BUDGET FOR ENTIRE MODEL AT END OF TIME STEP   18, STRESS PERIOD   5
  ---------------------------------------------------------------------------------------------------

     CUMULATIVE VOLUME      L**3       RATES FOR THIS TIME STEP      L**3/T          PACKAGE NAME    
     ------------------                 ------------------------                     ----------------

           IN:                                      IN:
           ---                                      ---
              STO-SS =           0.0000                STO-SS =           0.0000     STORAGE         
              STO-SY =           0.0000                STO-SY =           0.0000     STORAGE         
                 CHD =           0.0000                   CHD =           0.0000     CHD-1           
           UZF-GWRCH =           0.0000             UZF-GWRCH =           0.0000     UZF-1           
             UZF-GWD =           0.0000               UZF-GWD =           0.0000     UZF-1           
            UZF-GWET =           0.0000              UZF-GWET =           0.0000     UZF-1           

            TOTAL IN =           0.0000              TOTAL IN =           0.0000

          OUT:                                     OUT:
          ----                                     ----
              STO-SS =           0.0000                STO-SS =           0.0000     STORAGE         
              STO-SY =           0.0000                STO-SY =           0.0000     STORAGE         
                 CHD =           0.0000                   CHD =           0.0000     CHD-1           
           UZF-GWRCH =           0.0000             UZF-GWRCH =           0.0000     UZF-1           
             UZF-GWD =           0.0000               UZF-GWD =           0.0000     UZF-1           
            UZF-GWET =           0.0000              UZF-GWET =           0.0000     UZF-1           

           TOTAL OUT =           0.0000             TOTAL OUT =           0.0000

            IN - OUT =           0.0000              IN - OUT =           0.0000

 PERCENT DISCREPANCY =           0.00     PERCENT DISCREPANCY =           0.00




         TIME SUMMARY AT END OF TIME STEP   18 IN STRESS PERIOD    5
                    SECONDS     MINUTES      HOURS       DAYS        YEARS
                    -----------------------------------------------------------
   TIME STEP LENGTH 3.45600E+06  57600.      960.00      40.000     0.10951    
 STRESS PERIOD TIME 6.22080E+07 1.03680E+06  17280.      720.00      1.9713    
         TOTAL TIME 1.10592E+08 1.84320E+06  30720.      1280.0      3.5044    


end timestep


start timestep kper="5" kstp="19" mode="normal"

 UBDSV1 SAVING     FLOW-JA-FACE ON UNIT   1020 AT TIME STEP     19, STRESS PERIOD      5
 UBDSV06 SAVING     FLOW-JA-FACE IN MODEL GWF_1            PACKAGE UZF-1           CONNECTED TO MODEL GWF_1            PACKAGE UZF-1            ON UNIT   1014 AT TIME STEP     19, STRESS PERIOD      5
 UBDSV06 SAVING              GWF IN MODEL GWF_1            PACKAGE UZF-1           CONNECTED TO MODEL GWF_1            PACKAGE GWF_1            ON UNIT   1014 AT TIME STEP     19, STRESS PERIOD      5
 UBDSV06 SAVING     INFILTRATION IN MODEL GWF_1            PACKAGE UZF-1           CONNECTED TO MODEL GWF_1            PACKAGE UZF-1            ON UNIT   1014 AT TIME STEP     19, STRESS PERIOD      5
 UBDSV06 SAVING          REJ-INF IN MODEL GWF_1            PACKAGE UZF-1           CONNECTED TO MODEL GWF_1            PACKAGE UZF-1            ON UNIT   1014 AT TIME STEP     19, STRESS PERIOD      5
 UBDSV06 SAVING             UZET IN MODEL GWF_1            PACKAGE UZF-1           CONNECTED TO MODEL GWF_1            PACKAGE UZF-1            ON UNIT   1014 AT TIME STEP     19, STRESS PERIOD      5
 UBDSV06 SAVING          STORAGE IN MODEL GWF_1            PACKAGE UZF-1           CONNECTED TO MODEL GWF_1            PACKAGE UZF-1            ON UNIT   1014 AT TIME STEP     19, STRESS PERIOD      5

 CHD PACKAGE (CHD-1) FLOW RATES   PERIOD      5   STEP       19
 -----------------------------------------------
   NUMBER   CELLID                    RATE      
 -----------------------------------------------
     1      (3,1,1)               0.0000000     
     2      (3,1,10)              0.0000000     
 -----------------------------------------------




 UZF-GWRCH PACKAGE (UZF-1) FLOW RATES   PERIOD      5   STEP       19
 ----------------------------------------------------------------------------------------
   NUMBER   CELLID                    RATE       NAME                                    
 ----------------------------------------------------------------------------------------
     1      (1,1,2)               0.0000000      UZF01                                   
     2      (1,1,3)               0.0000000      UZF02                                   
     3      (1,1,4)               0.0000000      UZF03                                   
     4      (1,1,5)               0.0000000      UZF04                                   
     5      (1,1,6)               0.0000000      UZF05                                   
     6      (1,1,7)               0.0000000      UZF06                                   
     7      (1,1,8)               0.0000000      UZF07                                   
     8      (1,1,9)               0.0000000      UZF08                                   
     9      (2,1,2)               0.0000000      UZF08                                   
     10     (2,1,3)               0.0000000      UZF10                                   
     11     (2,1,4)               0.0000000      UZF11                                   
     12     (2,1,5)               0.0000000      UZF12                                   
     13     (2,1,6)               0.0000000      UZF13                                   
     14     (2,1,7)               0.0000000      UZF14                                   
     15     (2,1,8)               0.0000000      UZF15                                   
     16     (2,1,9)               0.0000000      UZF16                                   
     17     (3,1,2)               0.0000000      UZF17                                   
     18     (3,1,3)               0.0000000      UZF18                                   
     19     (3,1,4)               0.0000000      UZF19                                   
     20     (3,1,5)               0.0000000      UZF20                                   
     21     (3,1,6)               0.0000000      UZF21                                   
     22     (3,1,7)               0.0000000      UZF22                                   
     23     (3,1,8)               0.0000000      UZF23                                   
     24     (3,1,9)               0.0000000      UZF24                                   
 ----------------------------------------------------------------------------------------




 UZF-GWD PACKAGE (UZF-1) FLOW RATES   PERIOD      5   STEP       19
 ----------------------------------------------------------------------------------------
   NUMBER   CELLID                    RATE       NAME                                    
 ----------------------------------------------------------------------------------------
     1      (1,1,2)               0.0000000      UZF01                                   
     2      (1,1,3)               0.0000000      UZF02                                   
     3      (1,1,4)               0.0000000      UZF03                                   
     4      (1,1,5)               0.0000000      UZF04                                   
     5      (1,1,6)               0.0000000      UZF05                                   
     6      (1,1,7)               0.0000000      UZF06                                   
     7      (1,1,8)               0.0000000      UZF07                                   
     8      (1,1,9)               0.0000000      UZF08                                   
     9      (2,1,2)               0.0000000      UZF08                                   
     10     (2,1,3)               0.0000000      UZF10                                   
     11     (2,1,4)               0.0000000      UZF11                                   
     12     (2,1,5)               0.0000000      UZF12                                   
     13     (2,1,6)               0.0000000      UZF13                                   
     14     (2,1,7)               0.0000000      UZF14                                   
     15     (2,1,8)               0.0000000      UZF15                                   
     16     (2,1,9)               0.0000000      UZF16                                   
     17     (3,1,2)               0.0000000      UZF17                                   
     18     (3,1,3)               0.0000000      UZF18                                   
     19     (3,1,4)               0.0000000      UZF19                                   
     20     (3,1,5)               0.0000000      UZF20                                   
     21     (3,1,6)               0.0000000      UZF21                                   
     22     (3,1,7)               0.0000000      UZF22                                   
     23     (3,1,8)               0.0000000      UZF23                                   
     24     (3,1,9)               0.0000000      UZF24                                   
 ----------------------------------------------------------------------------------------




 UZF-GWET PACKAGE (UZF-1) FLOW RATES   PERIOD      5   STEP       19
 ----------------------------------------------------------------------------------------
   NUMBER   CELLID                    RATE       NAME                                    
 ----------------------------------------------------------------------------------------
     1      (1,1,2)               0.0000000      UZF01                                   
     2      (1,1,3)               0.0000000      UZF02                                   
     3      (1,1,4)               0.0000000      UZF03                                   
     4      (1,1,5)               0.0000000      UZF04                                   
     5      (1,1,6)               0.0000000      UZF05                                   
     6      (1,1,7)               0.0000000      UZF06                                   
     7      (1,1,8)               0.0000000      UZF07                                   
     8      (1,1,9)               0.0000000      UZF08                                   
     9      (2,1,2)               0.0000000      UZF08                                   
     10     (2,1,3)               0.0000000      UZF10                                   
     11     (2,1,4)               0.0000000      UZF11                                   
     12     (2,1,5)               0.0000000      UZF12                                   
     13     (2,1,6)               0.0000000      UZF13                                   
     14     (2,1,7)               0.0000000      UZF14                                   
     15     (2,1,8)               0.0000000      UZF15                                   
     16     (2,1,9)               0.0000000      UZF16                                   
     17     (3,1,2)               0.0000000      UZF17                                   
     18     (3,1,3)               0.0000000      UZF18                                   
     19     (3,1,4)               0.0000000      UZF19                                   
     20     (3,1,5)               0.0000000      UZF20                                   
     21     (3,1,6)               0.0000000      UZF21                                   
     22     (3,1,7)               0.0000000      UZF22                                   
     23     (3,1,8)               0.0000000      UZF23                                   
     24     (3,1,9)               0.0000000      UZF24                                   
 ----------------------------------------------------------------------------------------




 UZF-1 PACKAGE - SUMMARY OF FLOWS FOR EACH CONTROL VOLUME   PERIOD      5   STEP       19
 ----------------------------------------------------------------------------------------------------------------------------------------------------
                                                                                                                                           PERCENT   
   NUMBER   CELLID                  INFLOW      OUTFLOW        GWF      INFILTRATION   REJ INF        UZET       STORAGE      IN - OUT    DIFFERENCE 
 ----------------------------------------------------------------------------------------------------------------------------------------------------
     1      (1,1,2)               0.0000      -1.1760       0.0000       0.0000       0.0000       0.0000       1.1760       2.33147E-14  1.98249E-12
     2      (1,1,3)               0.0000      -1.1760       0.0000       0.0000       0.0000       0.0000       1.1760       2.33147E-14  1.98249E-12
     3      (1,1,4)               0.0000      -1.1760       0.0000       0.0000       0.0000       0.0000       1.1760       2.33147E-14  1.98249E-12
     4      (1,1,5)               0.0000      -1.1760       0.0000       0.0000       0.0000       0.0000       1.1760       2.33147E-14  1.98249E-12
     5      (1,1,6)               0.0000      -1.1760       0.0000       0.0000       0.0000       0.0000       1.1760       2.33147E-14  1.98249E-12
     6      (1,1,7)               0.0000      -1.1760       0.0000       0.0000       0.0000       0.0000       1.1760       2.33147E-14  1.98249E-12
     7      (1,1,8)               0.0000      -1.1760       0.0000       0.0000       0.0000       0.0000       1.1760       2.33147E-14  1.98249E-12
     8      (1,1,9)               0.0000      -1.1760       0.0000       0.0000       0.0000       0.0000       1.1760       2.33147E-14  1.98249E-12
     9      (2,1,2)               1.1760      -15.209       0.0000       0.0000       0.0000      -5.07433E-02  14.084       2.31934E-04  1.51989E-03
     10     (2,1,3)               1.1760      -15.209       0.0000       0.0000       0.0000      -5.07433E-02  14.084       2.31934E-04  1.51989E-03
     11     (2,1,4)               1.1760      -15.209       0.0000       0.0000       0.0000      -5.07433E-02  14.084       2.31934E-04  1.51989E-03
     12     (2,1,5)               1.1760      -15.209       0.0000       0.0000       0.0000      -5.07433E-02  14.084       2.31934E-04  1.51989E-03
     13     (2,1,6)               1.1760      -15.209       0.0000       0.0000       0.0000      -5.07433E-02  14.084       2.31934E-04  1.51989E-03
     14     (2,1,7)               1.1760      -15.209       0.0000       0.0000       0.0000      -5.07433E-02  14.084       2.31934E-04  1.51989E-03
     15     (2,1,8)               1.1760      -15.209       0.0000       0.0000       0.0000      -5.07433E-02  14.084       2.31934E-04  1.51989E-03
     16     (2,1,9)               1.1760      -15.209       0.0000       0.0000       0.0000      -5.07433E-02  14.084       2.31934E-04  1.51989E-03
     17     (3,1,2)               15.209       0.0000       0.0000       0.0000       0.0000       0.0000      -15.209       1.82610E-06  1.20066E-05
     18     (3,1,3)               15.209       0.0000       0.0000       0.0000       0.0000       0.0000      -15.209       1.82610E-06  1.20066E-05
     19     (3,1,4)               15.209       0.0000       0.0000       0.0000       0.0000       0.0000      -15.209       1.82610E-06  1.20066E-05
     20     (3,1,5)               15.209       0.0000       0.0000       0.0000       0.0000       0.0000      -15.209       1.82610E-06  1.20066E-05
     21     (3,1,6)               15.209       0.0000       0.0000       0.0000       0.0000       0.0000      -15.209       1.82610E-06  1.20066E-05
     22     (3,1,7)               15.209       0.0000       0.0000       0.0000       0.0000       0.0000      -15.209       1.82610E-06  1.20066E-05
     23     (3,1,8)               15.209       0.0000       0.0000       0.0000       0.0000       0.0000      -15.209       1.82610E-06  1.20066E-05
     24     (3,1,9)               15.209       0.0000       0.0000       0.0000       0.0000       0.0000      -15.209       1.82610E-06  1.20066E-05
 ----------------------------------------------------------------------------------------------------------------------------------------------------


1
  HEAD IN LAYER   1 AT END OF TIME STEP  19 IN STRESS PERIOD    5
  ---------------------------------------------------------------------------

            1           2           3           4           5           6           7           8           9          10
 ........................................................................................................................
   1   -25.00      -25.00      -25.00      -25.00      -25.00      -25.00      -25.00      -25.00      -25.00      -25.00    
1
  HEAD IN LAYER   2 AT END OF TIME STEP  19 IN STRESS PERIOD    5
  ---------------------------------------------------------------------------

            1           2           3           4           5           6           7           8           9          10
 ........................................................................................................................
   1   -25.00      -25.00      -25.00      -25.00      -25.00      -25.00      -25.00      -25.00      -25.00      -25.00    
1
  HEAD IN LAYER   3 AT END OF TIME STEP  19 IN STRESS PERIOD    5
  ---------------------------------------------------------------------------

            1           2           3           4           5           6           7           8           9          10
 ........................................................................................................................
   1   -25.00      -25.00      -25.00      -25.00      -25.00      -25.00      -25.00      -25.00      -25.00      -25.00    

 HEAD WILL BE SAVED ON UNIT 1022 AT END OF TIME STEP   19, STRESS PERIOD    5


  UZF-1 BUDGET FOR ENTIRE MODEL AT END OF TIME STEP   19, STRESS PERIOD   5
  ------------------------------------------------------------------------------

     CUMULATIVE UZF-1      L**3       RATES FOR THIS TIME STEP      L**3/T
     ------------------                 ------------------------

           IN:                                      IN:
           ---                                      ---
                 GWF =           0.0000                   GWF =           0.0000
        INFILTRATION =      480000.0000          INFILTRATION =           0.0000
             REJ-INF =           0.0000               REJ-INF =           0.0000
                UZET =           0.0000                  UZET =           0.0000
             STORAGE =      397030.7242               STORAGE =         122.0808

            TOTAL IN =      877030.7242              TOTAL IN =         122.0808

          OUT:                                     OUT:
          ----                                     ----
                 GWF =           0.0000                   GWF =           0.0000
        INFILTRATION =           0.0000          INFILTRATION =           0.0000
             REJ-INF =           0.0000               REJ-INF =           0.0000
                UZET =         662.1796                  UZET =           0.4059
             STORAGE =      876310.6848               STORAGE =         121.6729

           TOTAL OUT =      876972.8644             TOTAL OUT =         122.0789

            IN - OUT =          57.8598              IN - OUT =       1.8701E-03

 PERCENT DISCREPANCY =           0.01     PERCENT DISCREPANCY =           0.00



  VOLUME BUDGET FOR ENTIRE MODEL AT END OF TIME STEP   19, STRESS PERIOD   5
  ---------------------------------------------------------------------------------------------------

     CUMULATIVE VOLUME      L**3       RATES FOR THIS TIME STEP      L**3/T          PACKAGE NAME    
     ------------------                 ------------------------                     ----------------

           IN:                                      IN:
           ---                                      ---
              STO-SS =           0.0000                STO-SS =           0.0000     STORAGE         
              STO-SY =           0.0000                STO-SY =           0.0000     STORAGE         
                 CHD =           0.0000                   CHD =           0.0000     CHD-1           
           UZF-GWRCH =           0.0000             UZF-GWRCH =           0.0000     UZF-1           
             UZF-GWD =           0.0000               UZF-GWD =           0.0000     UZF-1           
            UZF-GWET =           0.0000              UZF-GWET =           0.0000     UZF-1           

            TOTAL IN =           0.0000              TOTAL IN =           0.0000

          OUT:                                     OUT:
          ----                                     ----
              STO-SS =           0.0000                STO-SS =           0.0000     STORAGE         
              STO-SY =           0.0000                STO-SY =           0.0000     STORAGE         
                 CHD =           0.0000                   CHD =           0.0000     CHD-1           
           UZF-GWRCH =           0.0000             UZF-GWRCH =           0.0000     UZF-1           
             UZF-GWD =           0.0000               UZF-GWD =           0.0000     UZF-1           
            UZF-GWET =           0.0000              UZF-GWET =           0.0000     UZF-1           

           TOTAL OUT =           0.0000             TOTAL OUT =           0.0000

            IN - OUT =           0.0000              IN - OUT =           0.0000

 PERCENT DISCREPANCY =           0.00     PERCENT DISCREPANCY =           0.00




         TIME SUMMARY AT END OF TIME STEP   19 IN STRESS PERIOD    5
                    SECONDS     MINUTES      HOURS       DAYS        YEARS
                    -----------------------------------------------------------
   TIME STEP LENGTH 3.45600E+06  57600.      960.00      40.000     0.10951    
 STRESS PERIOD TIME 6.56640E+07 1.09440E+06  18240.      760.00      2.0808    
         TOTAL TIME 1.14048E+08 1.90080E+06  31680.      1320.0      3.6140    


end timestep


start timestep kper="5" kstp="20" mode="normal"

 UBDSV1 SAVING     FLOW-JA-FACE ON UNIT   1020 AT TIME STEP     20, STRESS PERIOD      5
 UBDSV06 SAVING     FLOW-JA-FACE IN MODEL GWF_1            PACKAGE UZF-1           CONNECTED TO MODEL GWF_1            PACKAGE UZF-1            ON UNIT   1014 AT TIME STEP     20, STRESS PERIOD      5
 UBDSV06 SAVING              GWF IN MODEL GWF_1            PACKAGE UZF-1           CONNECTED TO MODEL GWF_1            PACKAGE GWF_1            ON UNIT   1014 AT TIME STEP     20, STRESS PERIOD      5
 UBDSV06 SAVING     INFILTRATION IN MODEL GWF_1            PACKAGE UZF-1           CONNECTED TO MODEL GWF_1            PACKAGE UZF-1            ON UNIT   1014 AT TIME STEP     20, STRESS PERIOD      5
 UBDSV06 SAVING          REJ-INF IN MODEL GWF_1            PACKAGE UZF-1           CONNECTED TO MODEL GWF_1            PACKAGE UZF-1            ON UNIT   1014 AT TIME STEP     20, STRESS PERIOD      5
 UBDSV06 SAVING             UZET IN MODEL GWF_1            PACKAGE UZF-1           CONNECTED TO MODEL GWF_1            PACKAGE UZF-1            ON UNIT   1014 AT TIME STEP     20, STRESS PERIOD      5
 UBDSV06 SAVING          STORAGE IN MODEL GWF_1            PACKAGE UZF-1           CONNECTED TO MODEL GWF_1            PACKAGE UZF-1            ON UNIT   1014 AT TIME STEP     20, STRESS PERIOD      5

 CHD PACKAGE (CHD-1) FLOW RATES   PERIOD      5   STEP       20
 -----------------------------------------------
   NUMBER   CELLID                    RATE      
 -----------------------------------------------
     1      (3,1,1)               0.0000000     
     2      (3,1,10)              0.0000000     
 -----------------------------------------------




 UZF-GWRCH PACKAGE (UZF-1) FLOW RATES   PERIOD      5   STEP       20
 ----------------------------------------------------------------------------------------
   NUMBER   CELLID                    RATE       NAME                                    
 ----------------------------------------------------------------------------------------
     1      (1,1,2)               0.0000000      UZF01                                   
     2      (1,1,3)               0.0000000      UZF02                                   
     3      (1,1,4)               0.0000000      UZF03                                   
     4      (1,1,5)               0.0000000      UZF04                                   
     5      (1,1,6)               0.0000000      UZF05                                   
     6      (1,1,7)               0.0000000      UZF06                                   
     7      (1,1,8)               0.0000000      UZF07                                   
     8      (1,1,9)               0.0000000      UZF08                                   
     9      (2,1,2)               0.0000000      UZF08                                   
     10     (2,1,3)               0.0000000      UZF10                                   
     11     (2,1,4)               0.0000000      UZF11                                   
     12     (2,1,5)               0.0000000      UZF12                                   
     13     (2,1,6)               0.0000000      UZF13                                   
     14     (2,1,7)               0.0000000      UZF14                                   
     15     (2,1,8)               0.0000000      UZF15                                   
     16     (2,1,9)               0.0000000      UZF16                                   
     17     (3,1,2)               0.0000000      UZF17                                   
     18     (3,1,3)               0.0000000      UZF18                                   
     19     (3,1,4)               0.0000000      UZF19                                   
     20     (3,1,5)               0.0000000      UZF20                                   
     21     (3,1,6)               0.0000000      UZF21                                   
     22     (3,1,7)               0.0000000      UZF22                                   
     23     (3,1,8)               0.0000000      UZF23                                   
     24     (3,1,9)               0.0000000      UZF24                                   
 ----------------------------------------------------------------------------------------




 UZF-GWD PACKAGE (UZF-1) FLOW RATES   PERIOD      5   STEP       20
 ----------------------------------------------------------------------------------------
   NUMBER   CELLID                    RATE       NAME                                    
 ----------------------------------------------------------------------------------------
     1      (1,1,2)               0.0000000      UZF01                                   
     2      (1,1,3)               0.0000000      UZF02                                   
     3      (1,1,4)               0.0000000      UZF03                                   
     4      (1,1,5)               0.0000000      UZF04                                   
     5      (1,1,6)               0.0000000      UZF05                                   
     6      (1,1,7)               0.0000000      UZF06                                   
     7      (1,1,8)               0.0000000      UZF07                                   
     8      (1,1,9)               0.0000000      UZF08                                   
     9      (2,1,2)               0.0000000      UZF08                                   
     10     (2,1,3)               0.0000000      UZF10                                   
     11     (2,1,4)               0.0000000      UZF11                                   
     12     (2,1,5)               0.0000000      UZF12                                   
     13     (2,1,6)               0.0000000      UZF13                                   
     14     (2,1,7)               0.0000000      UZF14                                   
     15     (2,1,8)               0.0000000      UZF15                                   
     16     (2,1,9)               0.0000000      UZF16                                   
     17     (3,1,2)               0.0000000      UZF17                                   
     18     (3,1,3)               0.0000000      UZF18                                   
     19     (3,1,4)               0.0000000      UZF19                                   
     20     (3,1,5)               0.0000000      UZF20                                   
     21     (3,1,6)               0.0000000      UZF21                                   
     22     (3,1,7)               0.0000000      UZF22                                   
     23     (3,1,8)               0.0000000      UZF23                                   
     24     (3,1,9)               0.0000000      UZF24                                   
 ----------------------------------------------------------------------------------------




 UZF-GWET PACKAGE (UZF-1) FLOW RATES   PERIOD      5   STEP       20
 ----------------------------------------------------------------------------------------
   NUMBER   CELLID                    RATE       NAME                                    
 ----------------------------------------------------------------------------------------
     1      (1,1,2)               0.0000000      UZF01                                   
     2      (1,1,3)               0.0000000      UZF02                                   
     3      (1,1,4)               0.0000000      UZF03                                   
     4      (1,1,5)               0.0000000      UZF04                                   
     5      (1,1,6)               0.0000000      UZF05                                   
     6      (1,1,7)               0.0000000      UZF06                                   
     7      (1,1,8)               0.0000000      UZF07                                   
     8      (1,1,9)               0.0000000      UZF08                                   
     9      (2,1,2)               0.0000000      UZF08                                   
     10     (2,1,3)               0.0000000      UZF10                                   
     11     (2,1,4)               0.0000000      UZF11                                   
     12     (2,1,5)               0.0000000      UZF12                                   
     13     (2,1,6)               0.0000000      UZF13                                   
     14     (2,1,7)               0.0000000      UZF14                                   
     15     (2,1,8)               0.0000000      UZF15                                   
     16     (2,1,9)               0.0000000      UZF16                                   
     17     (3,1,2)               0.0000000      UZF17                                   
     18     (3,1,3)               0.0000000      UZF18                                   
     19     (3,1,4)               0.0000000      UZF19                                   
     20     (3,1,5)               0.0000000      UZF20                                   
     21     (3,1,6)               0.0000000      UZF21                                   
     22     (3,1,7)               0.0000000      UZF22                                   
     23     (3,1,8)               0.0000000      UZF23                                   
     24     (3,1,9)               0.0000000      UZF24                                   
 ----------------------------------------------------------------------------------------




 UZF-1 PACKAGE - SUMMARY OF FLOWS FOR EACH CONTROL VOLUME   PERIOD      5   STEP       20
 ----------------------------------------------------------------------------------------------------------------------------------------------------
                                                                                                                                           PERCENT   
   NUMBER   CELLID                  INFLOW      OUTFLOW        GWF      INFILTRATION   REJ INF        UZET       STORAGE      IN - OUT    DIFFERENCE 
 ----------------------------------------------------------------------------------------------------------------------------------------------------
     1      (1,1,2)               0.0000      -1.1760       0.0000       0.0000       0.0000       0.0000       1.1760      -1.15463E-13 -9.81807E-12
     2      (1,1,3)               0.0000      -1.1760       0.0000       0.0000       0.0000       0.0000       1.1760      -1.15463E-13 -9.81807E-12
     3      (1,1,4)               0.0000      -1.1760       0.0000       0.0000       0.0000       0.0000       1.1760      -1.15463E-13 -9.81807E-12
     4      (1,1,5)               0.0000      -1.1760       0.0000       0.0000       0.0000       0.0000       1.1760      -1.15463E-13 -9.81807E-12
     5      (1,1,6)               0.0000      -1.1760       0.0000       0.0000       0.0000       0.0000       1.1760      -1.15463E-13 -9.81807E-12
     6      (1,1,7)               0.0000      -1.1760       0.0000       0.0000       0.0000       0.0000       1.1760      -1.15463E-13 -9.81807E-12
     7      (1,1,8)               0.0000      -1.1760       0.0000       0.0000       0.0000       0.0000       1.1760      -1.15463E-13 -9.81807E-12
     8      (1,1,9)               0.0000      -1.1760       0.0000       0.0000       0.0000       0.0000       1.1760      -1.15463E-13 -9.81807E-12
     9      (2,1,2)               1.1760      -15.203       0.0000       0.0000       0.0000      -4.96734E-02  14.077       2.41701E-04  1.58464E-03
     10     (2,1,3)               1.1760      -15.203       0.0000       0.0000       0.0000      -4.96734E-02  14.077       2.41701E-04  1.58464E-03
     11     (2,1,4)               1.1760      -15.203       0.0000       0.0000       0.0000      -4.96734E-02  14.077       2.41701E-04  1.58464E-03
     12     (2,1,5)               1.1760      -15.203       0.0000       0.0000       0.0000      -4.96734E-02  14.077       2.41701E-04  1.58464E-03
     13     (2,1,6)               1.1760      -15.203       0.0000       0.0000       0.0000      -4.96734E-02  14.077       2.41701E-04  1.58464E-03
     14     (2,1,7)               1.1760      -15.203       0.0000       0.0000       0.0000      -4.96734E-02  14.077       2.41701E-04  1.58464E-03
     15     (2,1,8)               1.1760      -15.203       0.0000       0.0000       0.0000      -4.96734E-02  14.077       2.41701E-04  1.58464E-03
     16     (2,1,9)               1.1760      -15.203       0.0000       0.0000       0.0000      -4.96734E-02  14.077       2.41701E-04  1.58464E-03
     17     (3,1,2)               15.203       0.0000       0.0000       0.0000       0.0000       0.0000      -15.203       1.82555E-06  1.20079E-05
     18     (3,1,3)               15.203       0.0000       0.0000       0.0000       0.0000       0.0000      -15.203       1.82555E-06  1.20079E-05
     19     (3,1,4)               15.203       0.0000       0.0000       0.0000       0.0000       0.0000      -15.203       1.82555E-06  1.20079E-05
     20     (3,1,5)               15.203       0.0000       0.0000       0.0000       0.0000       0.0000      -15.203       1.82555E-06  1.20079E-05
     21     (3,1,6)               15.203       0.0000       0.0000       0.0000       0.0000       0.0000      -15.203       1.82555E-06  1.20079E-05
     22     (3,1,7)               15.203       0.0000       0.0000       0.0000       0.0000       0.0000      -15.203       1.82555E-06  1.20079E-05
     23     (3,1,8)               15.203       0.0000       0.0000       0.0000       0.0000       0.0000      -15.203       1.82555E-06  1.20079E-05
     24     (3,1,9)               15.203       0.0000       0.0000       0.0000       0.0000       0.0000      -15.203       1.82555E-06  1.20079E-05
 ----------------------------------------------------------------------------------------------------------------------------------------------------


1
  HEAD IN LAYER   1 AT END OF TIME STEP  20 IN STRESS PERIOD    5
  ---------------------------------------------------------------------------

            1           2           3           4           5           6           7           8           9          10
 ........................................................................................................................
   1   -25.00      -25.00      -25.00      -25.00      -25.00      -25.00      -25.00      -25.00      -25.00      -25.00    
1
  HEAD IN LAYER   2 AT END OF TIME STEP  20 IN STRESS PERIOD    5
  ---------------------------------------------------------------------------

            1           2           3           4           5           6           7           8           9          10
 ........................................................................................................................
   1   -25.00      -25.00      -25.00      -25.00      -25.00      -25.00      -25.00      -25.00      -25.00      -25.00    
1
  HEAD IN LAYER   3 AT END OF TIME STEP  20 IN STRESS PERIOD    5
  ---------------------------------------------------------------------------

            1           2           3           4           5           6           7           8           9          10
 ........................................................................................................................
   1   -25.00      -25.00      -25.00      -25.00      -25.00      -25.00      -25.00      -25.00      -25.00      -25.00    

 HEAD WILL BE SAVED ON UNIT 1022 AT END OF TIME STEP   20, STRESS PERIOD    5


  UZF-1 BUDGET FOR ENTIRE MODEL AT END OF TIME STEP   20, STRESS PERIOD   5
  ------------------------------------------------------------------------------

     CUMULATIVE UZF-1      L**3       RATES FOR THIS TIME STEP      L**3/T
     ------------------                 ------------------------

           IN:                                      IN:
           ---                                      ---
                 GWF =           0.0000                   GWF =           0.0000
        INFILTRATION =      480000.0000          INFILTRATION =           0.0000
             REJ-INF =           0.0000               REJ-INF =           0.0000
                UZET =           0.0000                  UZET =           0.0000
             STORAGE =      401911.6236               STORAGE =         122.0225

            TOTAL IN =      881911.6236              TOTAL IN =         122.0225

          OUT:                                     OUT:
          ----                                     ----
                 GWF =           0.0000                   GWF =           0.0000
        INFILTRATION =           0.0000          INFILTRATION =           0.0000
             REJ-INF =           0.0000               REJ-INF =           0.0000
                UZET =         678.0751                  UZET =           0.3974
             STORAGE =      881175.6107               STORAGE =         121.6231

           TOTAL OUT =      881853.6859             TOTAL OUT =         122.0205

            IN - OUT =          57.9377              IN - OUT =       1.9482E-03

 PERCENT DISCREPANCY =           0.01     PERCENT DISCREPANCY =           0.00



  VOLUME BUDGET FOR ENTIRE MODEL AT END OF TIME STEP   20, STRESS PERIOD   5
  ---------------------------------------------------------------------------------------------------

     CUMULATIVE VOLUME      L**3       RATES FOR THIS TIME STEP      L**3/T          PACKAGE NAME    
     ------------------                 ------------------------                     ----------------

           IN:                                      IN:
           ---                                      ---
              STO-SS =           0.0000                STO-SS =           0.0000     STORAGE         
              STO-SY =           0.0000                STO-SY =           0.0000     STORAGE         
                 CHD =           0.0000                   CHD =           0.0000     CHD-1           
           UZF-GWRCH =           0.0000             UZF-GWRCH =           0.0000     UZF-1           
             UZF-GWD =           0.0000               UZF-GWD =           0.0000     UZF-1           
            UZF-GWET =           0.0000              UZF-GWET =           0.0000     UZF-1           

            TOTAL IN =           0.0000              TOTAL IN =           0.0000

          OUT:                                     OUT:
          ----                                     ----
              STO-SS =           0.0000                STO-SS =           0.0000     STORAGE         
              STO-SY =           0.0000                STO-SY =           0.0000     STORAGE         
                 CHD =           0.0000                   CHD =           0.0000     CHD-1           
           UZF-GWRCH =           0.0000             UZF-GWRCH =           0.0000     UZF-1           
             UZF-GWD =           0.0000               UZF-GWD =           0.0000     UZF-1           
            UZF-GWET =           0.0000              UZF-GWET =           0.0000     UZF-1           

           TOTAL OUT =           0.0000             TOTAL OUT =           0.0000

            IN - OUT =           0.0000              IN - OUT =           0.0000

 PERCENT DISCREPANCY =           0.00     PERCENT DISCREPANCY =           0.00




         TIME SUMMARY AT END OF TIME STEP   20 IN STRESS PERIOD    5
                    SECONDS     MINUTES      HOURS       DAYS        YEARS
                    -----------------------------------------------------------
   TIME STEP LENGTH 3.45600E+06  57600.      960.00      40.000     0.10951    
 STRESS PERIOD TIME 6.91200E+07 1.15200E+06  19200.      800.00      2.1903    
         TOTAL TIME 1.17504E+08 1.95840E+06  32640.      1360.0      3.7235    


end timestep


start timestep kper="5" kstp="21" mode="normal"

 UBDSV1 SAVING     FLOW-JA-FACE ON UNIT   1020 AT TIME STEP     21, STRESS PERIOD      5
 UBDSV06 SAVING     FLOW-JA-FACE IN MODEL GWF_1            PACKAGE UZF-1           CONNECTED TO MODEL GWF_1            PACKAGE UZF-1            ON UNIT   1014 AT TIME STEP     21, STRESS PERIOD      5
 UBDSV06 SAVING              GWF IN MODEL GWF_1            PACKAGE UZF-1           CONNECTED TO MODEL GWF_1            PACKAGE GWF_1            ON UNIT   1014 AT TIME STEP     21, STRESS PERIOD      5
 UBDSV06 SAVING     INFILTRATION IN MODEL GWF_1            PACKAGE UZF-1           CONNECTED TO MODEL GWF_1            PACKAGE UZF-1            ON UNIT   1014 AT TIME STEP     21, STRESS PERIOD      5
 UBDSV06 SAVING          REJ-INF IN MODEL GWF_1            PACKAGE UZF-1           CONNECTED TO MODEL GWF_1            PACKAGE UZF-1            ON UNIT   1014 AT TIME STEP     21, STRESS PERIOD      5
 UBDSV06 SAVING             UZET IN MODEL GWF_1            PACKAGE UZF-1           CONNECTED TO MODEL GWF_1            PACKAGE UZF-1            ON UNIT   1014 AT TIME STEP     21, STRESS PERIOD      5
 UBDSV06 SAVING          STORAGE IN MODEL GWF_1            PACKAGE UZF-1           CONNECTED TO MODEL GWF_1            PACKAGE UZF-1            ON UNIT   1014 AT TIME STEP     21, STRESS PERIOD      5

 CHD PACKAGE (CHD-1) FLOW RATES   PERIOD      5   STEP       21
 -----------------------------------------------
   NUMBER   CELLID                    RATE      
 -----------------------------------------------
     1      (3,1,1)               0.0000000     
     2      (3,1,10)              0.0000000     
 -----------------------------------------------




 UZF-GWRCH PACKAGE (UZF-1) FLOW RATES   PERIOD      5   STEP       21
 ----------------------------------------------------------------------------------------
   NUMBER   CELLID                    RATE       NAME                                    
 ----------------------------------------------------------------------------------------
     1      (1,1,2)               0.0000000      UZF01                                   
     2      (1,1,3)               0.0000000      UZF02                                   
     3      (1,1,4)               0.0000000      UZF03                                   
     4      (1,1,5)               0.0000000      UZF04                                   
     5      (1,1,6)               0.0000000      UZF05                                   
     6      (1,1,7)               0.0000000      UZF06                                   
     7      (1,1,8)               0.0000000      UZF07                                   
     8      (1,1,9)               0.0000000      UZF08                                   
     9      (2,1,2)               0.0000000      UZF08                                   
     10     (2,1,3)               0.0000000      UZF10                                   
     11     (2,1,4)               0.0000000      UZF11                                   
     12     (2,1,5)               0.0000000      UZF12                                   
     13     (2,1,6)               0.0000000      UZF13                                   
     14     (2,1,7)               0.0000000      UZF14                                   
     15     (2,1,8)               0.0000000      UZF15                                   
     16     (2,1,9)               0.0000000      UZF16                                   
     17     (3,1,2)               0.0000000      UZF17                                   
     18     (3,1,3)               0.0000000      UZF18                                   
     19     (3,1,4)               0.0000000      UZF19                                   
     20     (3,1,5)               0.0000000      UZF20                                   
     21     (3,1,6)               0.0000000      UZF21                                   
     22     (3,1,7)               0.0000000      UZF22                                   
     23     (3,1,8)               0.0000000      UZF23                                   
     24     (3,1,9)               0.0000000      UZF24                                   
 ----------------------------------------------------------------------------------------




 UZF-GWD PACKAGE (UZF-1) FLOW RATES   PERIOD      5   STEP       21
 ----------------------------------------------------------------------------------------
   NUMBER   CELLID                    RATE       NAME                                    
 ----------------------------------------------------------------------------------------
     1      (1,1,2)               0.0000000      UZF01                                   
     2      (1,1,3)               0.0000000      UZF02                                   
     3      (1,1,4)               0.0000000      UZF03                                   
     4      (1,1,5)               0.0000000      UZF04                                   
     5      (1,1,6)               0.0000000      UZF05                                   
     6      (1,1,7)               0.0000000      UZF06                                   
     7      (1,1,8)               0.0000000      UZF07                                   
     8      (1,1,9)               0.0000000      UZF08                                   
     9      (2,1,2)               0.0000000      UZF08                                   
     10     (2,1,3)               0.0000000      UZF10                                   
     11     (2,1,4)               0.0000000      UZF11                                   
     12     (2,1,5)               0.0000000      UZF12                                   
     13     (2,1,6)               0.0000000      UZF13                                   
     14     (2,1,7)               0.0000000      UZF14                                   
     15     (2,1,8)               0.0000000      UZF15                                   
     16     (2,1,9)               0.0000000      UZF16                                   
     17     (3,1,2)               0.0000000      UZF17                                   
     18     (3,1,3)               0.0000000      UZF18                                   
     19     (3,1,4)               0.0000000      UZF19                                   
     20     (3,1,5)               0.0000000      UZF20                                   
     21     (3,1,6)               0.0000000      UZF21                                   
     22     (3,1,7)               0.0000000      UZF22                                   
     23     (3,1,8)               0.0000000      UZF23                                   
     24     (3,1,9)               0.0000000      UZF24                                   
 ----------------------------------------------------------------------------------------




 UZF-GWET PACKAGE (UZF-1) FLOW RATES   PERIOD      5   STEP       21
 ----------------------------------------------------------------------------------------
   NUMBER   CELLID                    RATE       NAME                                    
 ----------------------------------------------------------------------------------------
     1      (1,1,2)               0.0000000      UZF01                                   
     2      (1,1,3)               0.0000000      UZF02                                   
     3      (1,1,4)               0.0000000      UZF03                                   
     4      (1,1,5)               0.0000000      UZF04                                   
     5      (1,1,6)               0.0000000      UZF05                                   
     6      (1,1,7)               0.0000000      UZF06                                   
     7      (1,1,8)               0.0000000      UZF07                                   
     8      (1,1,9)               0.0000000      UZF08                                   
     9      (2,1,2)               0.0000000      UZF08                                   
     10     (2,1,3)               0.0000000      UZF10                                   
     11     (2,1,4)               0.0000000      UZF11                                   
     12     (2,1,5)               0.0000000      UZF12                                   
     13     (2,1,6)               0.0000000      UZF13                                   
     14     (2,1,7)               0.0000000      UZF14                                   
     15     (2,1,8)               0.0000000      UZF15                                   
     16     (2,1,9)               0.0000000      UZF16                                   
     17     (3,1,2)               0.0000000      UZF17                                   
     18     (3,1,3)               0.0000000      UZF18                                   
     19     (3,1,4)               0.0000000      UZF19                                   
     20     (3,1,5)               0.0000000      UZF20                                   
     21     (3,1,6)               0.0000000      UZF21                                   
     22     (3,1,7)               0.0000000      UZF22                                   
     23     (3,1,8)               0.0000000      UZF23                                   
     24     (3,1,9)               0.0000000      UZF24                                   
 ----------------------------------------------------------------------------------------




 UZF-1 PACKAGE - SUMMARY OF FLOWS FOR EACH CONTROL VOLUME   PERIOD      5   STEP       21
 ----------------------------------------------------------------------------------------------------------------------------------------------------
                                                                                                                                           PERCENT   
   NUMBER   CELLID                  INFLOW      OUTFLOW        GWF      INFILTRATION   REJ INF        UZET       STORAGE      IN - OUT    DIFFERENCE 
 ----------------------------------------------------------------------------------------------------------------------------------------------------
     1      (1,1,2)               0.0000      -1.1760       0.0000       0.0000       0.0000       0.0000       1.1760       2.33147E-14  1.98249E-12
     2      (1,1,3)               0.0000      -1.1760       0.0000       0.0000       0.0000       0.0000       1.1760       2.33147E-14  1.98249E-12
     3      (1,1,4)               0.0000      -1.1760       0.0000       0.0000       0.0000       0.0000       1.1760       2.33147E-14  1.98249E-12
     4      (1,1,5)               0.0000      -1.1760       0.0000       0.0000       0.0000       0.0000       1.1760       2.33147E-14  1.98249E-12
     5      (1,1,6)               0.0000      -1.1760       0.0000       0.0000       0.0000       0.0000       1.1760       2.33147E-14  1.98249E-12
     6      (1,1,7)               0.0000      -1.1760       0.0000       0.0000       0.0000       0.0000       1.1760       2.33147E-14  1.98249E-12
     7      (1,1,8)               0.0000      -1.1760       0.0000       0.0000       0.0000       0.0000       1.1760       2.33147E-14  1.98249E-12
     8      (1,1,9)               0.0000      -1.1760       0.0000       0.0000       0.0000       0.0000       1.1760       2.33147E-14  1.98249E-12
     9      (2,1,2)               1.1760      -15.171       0.0000       0.0000       0.0000      -4.86036E-02  14.044       2.51039E-04  1.64939E-03
     10     (2,1,3)               1.1760      -15.171       0.0000       0.0000       0.0000      -4.86036E-02  14.044       2.51039E-04  1.64939E-03
     11     (2,1,4)               1.1760      -15.171       0.0000       0.0000       0.0000      -4.86036E-02  14.044       2.51039E-04  1.64939E-03
     12     (2,1,5)               1.1760      -15.171       0.0000       0.0000       0.0000      -4.86036E-02  14.044       2.51039E-04  1.64939E-03
     13     (2,1,6)               1.1760      -15.171       0.0000       0.0000       0.0000      -4.86036E-02  14.044       2.51039E-04  1.64939E-03
     14     (2,1,7)               1.1760      -15.171       0.0000       0.0000       0.0000      -4.86036E-02  14.044       2.51039E-04  1.64939E-03
     15     (2,1,8)               1.1760      -15.171       0.0000       0.0000       0.0000      -4.86036E-02  14.044       2.51039E-04  1.64939E-03
     16     (2,1,9)               1.1760      -15.171       0.0000       0.0000       0.0000      -4.86036E-02  14.044       2.51039E-04  1.64939E-03
     17     (3,1,2)               15.171       0.0000       0.0000       0.0000       0.0000       0.0000      -15.171       1.82288E-06  1.20153E-05
     18     (3,1,3)               15.171       0.0000       0.0000       0.0000       0.0000       0.0000      -15.171       1.82288E-06  1.20153E-05
     19     (3,1,4)               15.171       0.0000       0.0000       0.0000       0.0000       0.0000      -15.171       1.82288E-06  1.20153E-05
     20     (3,1,5)               15.171       0.0000       0.0000       0.0000       0.0000       0.0000      -15.171       1.82288E-06  1.20153E-05
     21     (3,1,6)               15.171       0.0000       0.0000       0.0000       0.0000       0.0000      -15.171       1.82288E-06  1.20153E-05
     22     (3,1,7)               15.171       0.0000       0.0000       0.0000       0.0000       0.0000      -15.171       1.82288E-06  1.20153E-05
     23     (3,1,8)               15.171       0.0000       0.0000       0.0000       0.0000       0.0000      -15.171       1.82288E-06  1.20153E-05
     24     (3,1,9)               15.171       0.0000       0.0000       0.0000       0.0000       0.0000      -15.171       1.82288E-06  1.20153E-05
 ----------------------------------------------------------------------------------------------------------------------------------------------------


1
  HEAD IN LAYER   1 AT END OF TIME STEP  21 IN STRESS PERIOD    5
  ---------------------------------------------------------------------------

            1           2           3           4           5           6           7           8           9          10
 ........................................................................................................................
   1   -25.00      -25.00      -25.00      -25.00      -25.00      -25.00      -25.00      -25.00      -25.00      -25.00    
1
  HEAD IN LAYER   2 AT END OF TIME STEP  21 IN STRESS PERIOD    5
  ---------------------------------------------------------------------------

            1           2           3           4           5           6           7           8           9          10
 ........................................................................................................................
   1   -25.00      -25.00      -25.00      -25.00      -25.00      -25.00      -25.00      -25.00      -25.00      -25.00    
1
  HEAD IN LAYER   3 AT END OF TIME STEP  21 IN STRESS PERIOD    5
  ---------------------------------------------------------------------------

            1           2           3           4           5           6           7           8           9          10
 ........................................................................................................................
   1   -25.00      -25.00      -25.00      -25.00      -25.00      -25.00      -25.00      -25.00      -25.00      -25.00    

 HEAD WILL BE SAVED ON UNIT 1022 AT END OF TIME STEP   21, STRESS PERIOD    5


  UZF-1 BUDGET FOR ENTIRE MODEL AT END OF TIME STEP   21, STRESS PERIOD   5
  ------------------------------------------------------------------------------

     CUMULATIVE UZF-1      L**3       RATES FOR THIS TIME STEP      L**3/T
     ------------------                 ------------------------

           IN:                                      IN:
           ---                                      ---
                 GWF =           0.0000                   GWF =           0.0000
        INFILTRATION =      480000.0000          INFILTRATION =           0.0000
             REJ-INF =           0.0000               REJ-INF =           0.0000
                UZET =           0.0000                  UZET =           0.0000
             STORAGE =      406782.0872               STORAGE =         121.7616

            TOTAL IN =      886782.0872              TOTAL IN =         121.7616

          OUT:                                     OUT:
          ----                                     ----
                 GWF =           0.0000                   GWF =           0.0000
        INFILTRATION =           0.0000          INFILTRATION =           0.0000
             REJ-INF =           0.0000               REJ-INF =           0.0000
                UZET =         693.6283                  UZET =           0.3888
             STORAGE =      886030.4402               STORAGE =         121.3707

           TOTAL OUT =      886724.0685             TOTAL OUT =         121.7596

            IN - OUT =          58.0187              IN - OUT =       2.0229E-03

 PERCENT DISCREPANCY =           0.01     PERCENT DISCREPANCY =           0.00



  VOLUME BUDGET FOR ENTIRE MODEL AT END OF TIME STEP   21, STRESS PERIOD   5
  ---------------------------------------------------------------------------------------------------

     CUMULATIVE VOLUME      L**3       RATES FOR THIS TIME STEP      L**3/T          PACKAGE NAME    
     ------------------                 ------------------------                     ----------------

           IN:                                      IN:
           ---                                      ---
              STO-SS =           0.0000                STO-SS =           0.0000     STORAGE         
              STO-SY =           0.0000                STO-SY =           0.0000     STORAGE         
                 CHD =           0.0000                   CHD =           0.0000     CHD-1           
           UZF-GWRCH =           0.0000             UZF-GWRCH =           0.0000     UZF-1           
             UZF-GWD =           0.0000               UZF-GWD =           0.0000     UZF-1           
            UZF-GWET =           0.0000              UZF-GWET =           0.0000     UZF-1           

            TOTAL IN =           0.0000              TOTAL IN =           0.0000

          OUT:                                     OUT:
          ----                                     ----
              STO-SS =           0.0000                STO-SS =           0.0000     STORAGE         
              STO-SY =           0.0000                STO-SY =           0.0000     STORAGE         
                 CHD =           0.0000                   CHD =           0.0000     CHD-1           
           UZF-GWRCH =           0.0000             UZF-GWRCH =           0.0000     UZF-1           
             UZF-GWD =           0.0000               UZF-GWD =           0.0000     UZF-1           
            UZF-GWET =           0.0000              UZF-GWET =           0.0000     UZF-1           

           TOTAL OUT =           0.0000             TOTAL OUT =           0.0000

            IN - OUT =           0.0000              IN - OUT =           0.0000

 PERCENT DISCREPANCY =           0.00     PERCENT DISCREPANCY =           0.00




         TIME SUMMARY AT END OF TIME STEP   21 IN STRESS PERIOD    5
                    SECONDS     MINUTES      HOURS       DAYS        YEARS
                    -----------------------------------------------------------
   TIME STEP LENGTH 3.45600E+06  57600.      960.00      40.000     0.10951    
 STRESS PERIOD TIME 7.25760E+07 1.20960E+06  20160.      840.00      2.2998    
         TOTAL TIME 1.20960E+08 2.01600E+06  33600.      1400.0      3.8330    


end timestep


start timestep kper="5" kstp="22" mode="normal"

 UBDSV1 SAVING     FLOW-JA-FACE ON UNIT   1020 AT TIME STEP     22, STRESS PERIOD      5
 UBDSV06 SAVING     FLOW-JA-FACE IN MODEL GWF_1            PACKAGE UZF-1           CONNECTED TO MODEL GWF_1            PACKAGE UZF-1            ON UNIT   1014 AT TIME STEP     22, STRESS PERIOD      5
 UBDSV06 SAVING              GWF IN MODEL GWF_1            PACKAGE UZF-1           CONNECTED TO MODEL GWF_1            PACKAGE GWF_1            ON UNIT   1014 AT TIME STEP     22, STRESS PERIOD      5
 UBDSV06 SAVING     INFILTRATION IN MODEL GWF_1            PACKAGE UZF-1           CONNECTED TO MODEL GWF_1            PACKAGE UZF-1            ON UNIT   1014 AT TIME STEP     22, STRESS PERIOD      5
 UBDSV06 SAVING          REJ-INF IN MODEL GWF_1            PACKAGE UZF-1           CONNECTED TO MODEL GWF_1            PACKAGE UZF-1            ON UNIT   1014 AT TIME STEP     22, STRESS PERIOD      5
 UBDSV06 SAVING             UZET IN MODEL GWF_1            PACKAGE UZF-1           CONNECTED TO MODEL GWF_1            PACKAGE UZF-1            ON UNIT   1014 AT TIME STEP     22, STRESS PERIOD      5
 UBDSV06 SAVING          STORAGE IN MODEL GWF_1            PACKAGE UZF-1           CONNECTED TO MODEL GWF_1            PACKAGE UZF-1            ON UNIT   1014 AT TIME STEP     22, STRESS PERIOD      5

 CHD PACKAGE (CHD-1) FLOW RATES   PERIOD      5   STEP       22
 -----------------------------------------------
   NUMBER   CELLID                    RATE      
 -----------------------------------------------
     1      (3,1,1)               0.0000000     
     2      (3,1,10)              0.0000000     
 -----------------------------------------------




 UZF-GWRCH PACKAGE (UZF-1) FLOW RATES   PERIOD      5   STEP       22
 ----------------------------------------------------------------------------------------
   NUMBER   CELLID                    RATE       NAME                                    
 ----------------------------------------------------------------------------------------
     1      (1,1,2)               0.0000000      UZF01                                   
     2      (1,1,3)               0.0000000      UZF02                                   
     3      (1,1,4)               0.0000000      UZF03                                   
     4      (1,1,5)               0.0000000      UZF04                                   
     5      (1,1,6)               0.0000000      UZF05                                   
     6      (1,1,7)               0.0000000      UZF06                                   
     7      (1,1,8)               0.0000000      UZF07                                   
     8      (1,1,9)               0.0000000      UZF08                                   
     9      (2,1,2)               0.0000000      UZF08                                   
     10     (2,1,3)               0.0000000      UZF10                                   
     11     (2,1,4)               0.0000000      UZF11                                   
     12     (2,1,5)               0.0000000      UZF12                                   
     13     (2,1,6)               0.0000000      UZF13                                   
     14     (2,1,7)               0.0000000      UZF14                                   
     15     (2,1,8)               0.0000000      UZF15                                   
     16     (2,1,9)               0.0000000      UZF16                                   
     17     (3,1,2)               0.0000000      UZF17                                   
     18     (3,1,3)               0.0000000      UZF18                                   
     19     (3,1,4)               0.0000000      UZF19                                   
     20     (3,1,5)               0.0000000      UZF20                                   
     21     (3,1,6)               0.0000000      UZF21                                   
     22     (3,1,7)               0.0000000      UZF22                                   
     23     (3,1,8)               0.0000000      UZF23                                   
     24     (3,1,9)               0.0000000      UZF24                                   
 ----------------------------------------------------------------------------------------




 UZF-GWD PACKAGE (UZF-1) FLOW RATES   PERIOD      5   STEP       22
 ----------------------------------------------------------------------------------------
   NUMBER   CELLID                    RATE       NAME                                    
 ----------------------------------------------------------------------------------------
     1      (1,1,2)               0.0000000      UZF01                                   
     2      (1,1,3)               0.0000000      UZF02                                   
     3      (1,1,4)               0.0000000      UZF03                                   
     4      (1,1,5)               0.0000000      UZF04                                   
     5      (1,1,6)               0.0000000      UZF05                                   
     6      (1,1,7)               0.0000000      UZF06                                   
     7      (1,1,8)               0.0000000      UZF07                                   
     8      (1,1,9)               0.0000000      UZF08                                   
     9      (2,1,2)               0.0000000      UZF08                                   
     10     (2,1,3)               0.0000000      UZF10                                   
     11     (2,1,4)               0.0000000      UZF11                                   
     12     (2,1,5)               0.0000000      UZF12                                   
     13     (2,1,6)               0.0000000      UZF13                                   
     14     (2,1,7)               0.0000000      UZF14                                   
     15     (2,1,8)               0.0000000      UZF15                                   
     16     (2,1,9)               0.0000000      UZF16                                   
     17     (3,1,2)               0.0000000      UZF17                                   
     18     (3,1,3)               0.0000000      UZF18                                   
     19     (3,1,4)               0.0000000      UZF19                                   
     20     (3,1,5)               0.0000000      UZF20                                   
     21     (3,1,6)               0.0000000      UZF21                                   
     22     (3,1,7)               0.0000000      UZF22                                   
     23     (3,1,8)               0.0000000      UZF23                                   
     24     (3,1,9)               0.0000000      UZF24                                   
 ----------------------------------------------------------------------------------------




 UZF-GWET PACKAGE (UZF-1) FLOW RATES   PERIOD      5   STEP       22
 ----------------------------------------------------------------------------------------
   NUMBER   CELLID                    RATE       NAME                                    
 ----------------------------------------------------------------------------------------
     1      (1,1,2)               0.0000000      UZF01                                   
     2      (1,1,3)               0.0000000      UZF02                                   
     3      (1,1,4)               0.0000000      UZF03                                   
     4      (1,1,5)               0.0000000      UZF04                                   
     5      (1,1,6)               0.0000000      UZF05                                   
     6      (1,1,7)               0.0000000      UZF06                                   
     7      (1,1,8)               0.0000000      UZF07                                   
     8      (1,1,9)               0.0000000      UZF08                                   
     9      (2,1,2)               0.0000000      UZF08                                   
     10     (2,1,3)               0.0000000      UZF10                                   
     11     (2,1,4)               0.0000000      UZF11                                   
     12     (2,1,5)               0.0000000      UZF12                                   
     13     (2,1,6)               0.0000000      UZF13                                   
     14     (2,1,7)               0.0000000      UZF14                                   
     15     (2,1,8)               0.0000000      UZF15                                   
     16     (2,1,9)               0.0000000      UZF16                                   
     17     (3,1,2)               0.0000000      UZF17                                   
     18     (3,1,3)               0.0000000      UZF18                                   
     19     (3,1,4)               0.0000000      UZF19                                   
     20     (3,1,5)               0.0000000      UZF20                                   
     21     (3,1,6)               0.0000000      UZF21                                   
     22     (3,1,7)               0.0000000      UZF22                                   
     23     (3,1,8)               0.0000000      UZF23                                   
     24     (3,1,9)               0.0000000      UZF24                                   
 ----------------------------------------------------------------------------------------




 UZF-1 PACKAGE - SUMMARY OF FLOWS FOR EACH CONTROL VOLUME   PERIOD      5   STEP       22
 ----------------------------------------------------------------------------------------------------------------------------------------------------
                                                                                                                                           PERCENT   
   NUMBER   CELLID                  INFLOW      OUTFLOW        GWF      INFILTRATION   REJ INF        UZET       STORAGE      IN - OUT    DIFFERENCE 
 ----------------------------------------------------------------------------------------------------------------------------------------------------
     1      (1,1,2)               0.0000      -1.1760       0.0000       0.0000       0.0000       0.0000       1.1760       2.33147E-14  1.98249E-12
     2      (1,1,3)               0.0000      -1.1760       0.0000       0.0000       0.0000       0.0000       1.1760       2.33147E-14  1.98249E-12
     3      (1,1,4)               0.0000      -1.1760       0.0000       0.0000       0.0000       0.0000       1.1760       2.33147E-14  1.98249E-12
     4      (1,1,5)               0.0000      -1.1760       0.0000       0.0000       0.0000       0.0000       1.1760       2.33147E-14  1.98249E-12
     5      (1,1,6)               0.0000      -1.1760       0.0000       0.0000       0.0000       0.0000       1.1760       2.33147E-14  1.98249E-12
     6      (1,1,7)               0.0000      -1.1760       0.0000       0.0000       0.0000       0.0000       1.1760       2.33147E-14  1.98249E-12
     7      (1,1,8)               0.0000      -1.1760       0.0000       0.0000       0.0000       0.0000       1.1760       2.33147E-14  1.98249E-12
     8      (1,1,9)               0.0000      -1.1760       0.0000       0.0000       0.0000       0.0000       1.1760       2.33147E-14  1.98249E-12
     9      (2,1,2)               1.1760      -14.343       0.0000       0.0000       0.0000      -4.75338E-02  13.215       2.59949E-04  1.80635E-03
     10     (2,1,3)               1.1760      -14.343       0.0000       0.0000       0.0000      -4.75338E-02  13.215       2.59949E-04  1.80635E-03
     11     (2,1,4)               1.1760      -14.343       0.0000       0.0000       0.0000      -4.75338E-02  13.215       2.59949E-04  1.80635E-03
     12     (2,1,5)               1.1760      -14.343       0.0000       0.0000       0.0000      -4.75338E-02  13.215       2.59949E-04  1.80635E-03
     13     (2,1,6)               1.1760      -14.343       0.0000       0.0000       0.0000      -4.75338E-02  13.215       2.59949E-04  1.80635E-03
     14     (2,1,7)               1.1760      -14.343       0.0000       0.0000       0.0000      -4.75338E-02  13.215       2.59949E-04  1.80635E-03
     15     (2,1,8)               1.1760      -14.343       0.0000       0.0000       0.0000      -4.75338E-02  13.215       2.59949E-04  1.80635E-03
     16     (2,1,9)               1.1760      -14.343       0.0000       0.0000       0.0000      -4.75338E-02  13.215       2.59949E-04  1.80635E-03
     17     (3,1,2)               14.343       0.0000       0.0000       0.0000       0.0000       0.0000      -14.343       1.75319E-06  1.22232E-05
     18     (3,1,3)               14.343       0.0000       0.0000       0.0000       0.0000       0.0000      -14.343       1.75319E-06  1.22232E-05
     19     (3,1,4)               14.343       0.0000       0.0000       0.0000       0.0000       0.0000      -14.343       1.75319E-06  1.22232E-05
     20     (3,1,5)               14.343       0.0000       0.0000       0.0000       0.0000       0.0000      -14.343       1.75319E-06  1.22232E-05
     21     (3,1,6)               14.343       0.0000       0.0000       0.0000       0.0000       0.0000      -14.343       1.75319E-06  1.22232E-05
     22     (3,1,7)               14.343       0.0000       0.0000       0.0000       0.0000       0.0000      -14.343       1.75319E-06  1.22232E-05
     23     (3,1,8)               14.343       0.0000       0.0000       0.0000       0.0000       0.0000      -14.343       1.75319E-06  1.22232E-05
     24     (3,1,9)               14.343       0.0000       0.0000       0.0000       0.0000       0.0000      -14.343       1.75319E-06  1.22232E-05
 ----------------------------------------------------------------------------------------------------------------------------------------------------


1
  HEAD IN LAYER   1 AT END OF TIME STEP  22 IN STRESS PERIOD    5
  ---------------------------------------------------------------------------

            1           2           3           4           5           6           7           8           9          10
 ........................................................................................................................
   1   -25.00      -25.00      -25.00      -25.00      -25.00      -25.00      -25.00      -25.00      -25.00      -25.00    
1
  HEAD IN LAYER   2 AT END OF TIME STEP  22 IN STRESS PERIOD    5
  ---------------------------------------------------------------------------

            1           2           3           4           5           6           7           8           9          10
 ........................................................................................................................
   1   -25.00      -25.00      -25.00      -25.00      -25.00      -25.00      -25.00      -25.00      -25.00      -25.00    
1
  HEAD IN LAYER   3 AT END OF TIME STEP  22 IN STRESS PERIOD    5
  ---------------------------------------------------------------------------

            1           2           3           4           5           6           7           8           9          10
 ........................................................................................................................
   1   -25.00      -25.00      -25.00      -25.00      -25.00      -25.00      -25.00      -25.00      -25.00      -25.00    

 HEAD WILL BE SAVED ON UNIT 1022 AT END OF TIME STEP   22, STRESS PERIOD    5


  UZF-1 BUDGET FOR ENTIRE MODEL AT END OF TIME STEP   22, STRESS PERIOD   5
  ------------------------------------------------------------------------------

     CUMULATIVE UZF-1      L**3       RATES FOR THIS TIME STEP      L**3/T
     ------------------                 ------------------------

           IN:                                      IN:
           ---                                      ---
                 GWF =           0.0000                   GWF =           0.0000
        INFILTRATION =      480000.0000          INFILTRATION =           0.0000
             REJ-INF =           0.0000               REJ-INF =           0.0000
                UZET =           0.0000                  UZET =           0.0000
             STORAGE =      411387.1891               STORAGE =         115.1275

            TOTAL IN =      891387.1891              TOTAL IN =         115.1275

          OUT:                                     OUT:
          ----                                     ----
                 GWF =           0.0000                   GWF =           0.0000
        INFILTRATION =           0.0000          INFILTRATION =           0.0000
             REJ-INF =           0.0000               REJ-INF =           0.0000
                UZET =         708.8391                  UZET =           0.3803
             STORAGE =      890620.2476               STORAGE =         114.7452

           TOTAL OUT =      891329.0867             TOTAL OUT =         115.1255

            IN - OUT =          58.1024              IN - OUT =       2.0936E-03

 PERCENT DISCREPANCY =           0.01     PERCENT DISCREPANCY =           0.00



  VOLUME BUDGET FOR ENTIRE MODEL AT END OF TIME STEP   22, STRESS PERIOD   5
  ---------------------------------------------------------------------------------------------------

     CUMULATIVE VOLUME      L**3       RATES FOR THIS TIME STEP      L**3/T          PACKAGE NAME    
     ------------------                 ------------------------                     ----------------

           IN:                                      IN:
           ---                                      ---
              STO-SS =           0.0000                STO-SS =           0.0000     STORAGE         
              STO-SY =           0.0000                STO-SY =           0.0000     STORAGE         
                 CHD =           0.0000                   CHD =           0.0000     CHD-1           
           UZF-GWRCH =           0.0000             UZF-GWRCH =           0.0000     UZF-1           
             UZF-GWD =           0.0000               UZF-GWD =           0.0000     UZF-1           
            UZF-GWET =           0.0000              UZF-GWET =           0.0000     UZF-1           

            TOTAL IN =           0.0000              TOTAL IN =           0.0000

          OUT:                                     OUT:
          ----                                     ----
              STO-SS =           0.0000                STO-SS =           0.0000     STORAGE         
              STO-SY =           0.0000                STO-SY =           0.0000     STORAGE         
                 CHD =           0.0000                   CHD =           0.0000     CHD-1           
           UZF-GWRCH =           0.0000             UZF-GWRCH =           0.0000     UZF-1           
             UZF-GWD =           0.0000               UZF-GWD =           0.0000     UZF-1           
            UZF-GWET =           0.0000              UZF-GWET =           0.0000     UZF-1           

           TOTAL OUT =           0.0000             TOTAL OUT =           0.0000

            IN - OUT =           0.0000              IN - OUT =           0.0000

 PERCENT DISCREPANCY =           0.00     PERCENT DISCREPANCY =           0.00




         TIME SUMMARY AT END OF TIME STEP   22 IN STRESS PERIOD    5
                    SECONDS     MINUTES      HOURS       DAYS        YEARS
                    -----------------------------------------------------------
   TIME STEP LENGTH 3.45600E+06  57600.      960.00      40.000     0.10951    
 STRESS PERIOD TIME 7.60320E+07 1.26720E+06  21120.      880.00      2.4093    
         TOTAL TIME 1.24416E+08 2.07360E+06  34560.      1440.0      3.9425    


end timestep


start timestep kper="5" kstp="23" mode="normal"

 UBDSV1 SAVING     FLOW-JA-FACE ON UNIT   1020 AT TIME STEP     23, STRESS PERIOD      5
 UBDSV06 SAVING     FLOW-JA-FACE IN MODEL GWF_1            PACKAGE UZF-1           CONNECTED TO MODEL GWF_1            PACKAGE UZF-1            ON UNIT   1014 AT TIME STEP     23, STRESS PERIOD      5
 UBDSV06 SAVING              GWF IN MODEL GWF_1            PACKAGE UZF-1           CONNECTED TO MODEL GWF_1            PACKAGE GWF_1            ON UNIT   1014 AT TIME STEP     23, STRESS PERIOD      5
 UBDSV06 SAVING     INFILTRATION IN MODEL GWF_1            PACKAGE UZF-1           CONNECTED TO MODEL GWF_1            PACKAGE UZF-1            ON UNIT   1014 AT TIME STEP     23, STRESS PERIOD      5
 UBDSV06 SAVING          REJ-INF IN MODEL GWF_1            PACKAGE UZF-1           CONNECTED TO MODEL GWF_1            PACKAGE UZF-1            ON UNIT   1014 AT TIME STEP     23, STRESS PERIOD      5
 UBDSV06 SAVING             UZET IN MODEL GWF_1            PACKAGE UZF-1           CONNECTED TO MODEL GWF_1            PACKAGE UZF-1            ON UNIT   1014 AT TIME STEP     23, STRESS PERIOD      5
 UBDSV06 SAVING          STORAGE IN MODEL GWF_1            PACKAGE UZF-1           CONNECTED TO MODEL GWF_1            PACKAGE UZF-1            ON UNIT   1014 AT TIME STEP     23, STRESS PERIOD      5

 CHD PACKAGE (CHD-1) FLOW RATES   PERIOD      5   STEP       23
 -----------------------------------------------
   NUMBER   CELLID                    RATE      
 -----------------------------------------------
     1      (3,1,1)               0.0000000     
     2      (3,1,10)              0.0000000     
 -----------------------------------------------




 UZF-GWRCH PACKAGE (UZF-1) FLOW RATES   PERIOD      5   STEP       23
 ----------------------------------------------------------------------------------------
   NUMBER   CELLID                    RATE       NAME                                    
 ----------------------------------------------------------------------------------------
     1      (1,1,2)               0.0000000      UZF01                                   
     2      (1,1,3)               0.0000000      UZF02                                   
     3      (1,1,4)               0.0000000      UZF03                                   
     4      (1,1,5)               0.0000000      UZF04                                   
     5      (1,1,6)               0.0000000      UZF05                                   
     6      (1,1,7)               0.0000000      UZF06                                   
     7      (1,1,8)               0.0000000      UZF07                                   
     8      (1,1,9)               0.0000000      UZF08                                   
     9      (2,1,2)               0.0000000      UZF08                                   
     10     (2,1,3)               0.0000000      UZF10                                   
     11     (2,1,4)               0.0000000      UZF11                                   
     12     (2,1,5)               0.0000000      UZF12                                   
     13     (2,1,6)               0.0000000      UZF13                                   
     14     (2,1,7)               0.0000000      UZF14                                   
     15     (2,1,8)               0.0000000      UZF15                                   
     16     (2,1,9)               0.0000000      UZF16                                   
     17     (3,1,2)               0.0000000      UZF17                                   
     18     (3,1,3)               0.0000000      UZF18                                   
     19     (3,1,4)               0.0000000      UZF19                                   
     20     (3,1,5)               0.0000000      UZF20                                   
     21     (3,1,6)               0.0000000      UZF21                                   
     22     (3,1,7)               0.0000000      UZF22                                   
     23     (3,1,8)               0.0000000      UZF23                                   
     24     (3,1,9)               0.0000000      UZF24                                   
 ----------------------------------------------------------------------------------------




 UZF-GWD PACKAGE (UZF-1) FLOW RATES   PERIOD      5   STEP       23
 ----------------------------------------------------------------------------------------
   NUMBER   CELLID                    RATE       NAME                                    
 ----------------------------------------------------------------------------------------
     1      (1,1,2)               0.0000000      UZF01                                   
     2      (1,1,3)               0.0000000      UZF02                                   
     3      (1,1,4)               0.0000000      UZF03                                   
     4      (1,1,5)               0.0000000      UZF04                                   
     5      (1,1,6)               0.0000000      UZF05                                   
     6      (1,1,7)               0.0000000      UZF06                                   
     7      (1,1,8)               0.0000000      UZF07                                   
     8      (1,1,9)               0.0000000      UZF08                                   
     9      (2,1,2)               0.0000000      UZF08                                   
     10     (2,1,3)               0.0000000      UZF10                                   
     11     (2,1,4)               0.0000000      UZF11                                   
     12     (2,1,5)               0.0000000      UZF12                                   
     13     (2,1,6)               0.0000000      UZF13                                   
     14     (2,1,7)               0.0000000      UZF14                                   
     15     (2,1,8)               0.0000000      UZF15                                   
     16     (2,1,9)               0.0000000      UZF16                                   
     17     (3,1,2)               0.0000000      UZF17                                   
     18     (3,1,3)               0.0000000      UZF18                                   
     19     (3,1,4)               0.0000000      UZF19                                   
     20     (3,1,5)               0.0000000      UZF20                                   
     21     (3,1,6)               0.0000000      UZF21                                   
     22     (3,1,7)               0.0000000      UZF22                                   
     23     (3,1,8)               0.0000000      UZF23                                   
     24     (3,1,9)               0.0000000      UZF24                                   
 ----------------------------------------------------------------------------------------




 UZF-GWET PACKAGE (UZF-1) FLOW RATES   PERIOD      5   STEP       23
 ----------------------------------------------------------------------------------------
   NUMBER   CELLID                    RATE       NAME                                    
 ----------------------------------------------------------------------------------------
     1      (1,1,2)               0.0000000      UZF01                                   
     2      (1,1,3)               0.0000000      UZF02                                   
     3      (1,1,4)               0.0000000      UZF03                                   
     4      (1,1,5)               0.0000000      UZF04                                   
     5      (1,1,6)               0.0000000      UZF05                                   
     6      (1,1,7)               0.0000000      UZF06                                   
     7      (1,1,8)               0.0000000      UZF07                                   
     8      (1,1,9)               0.0000000      UZF08                                   
     9      (2,1,2)               0.0000000      UZF08                                   
     10     (2,1,3)               0.0000000      UZF10                                   
     11     (2,1,4)               0.0000000      UZF11                                   
     12     (2,1,5)               0.0000000      UZF12                                   
     13     (2,1,6)               0.0000000      UZF13                                   
     14     (2,1,7)               0.0000000      UZF14                                   
     15     (2,1,8)               0.0000000      UZF15                                   
     16     (2,1,9)               0.0000000      UZF16                                   
     17     (3,1,2)               0.0000000      UZF17                                   
     18     (3,1,3)               0.0000000      UZF18                                   
     19     (3,1,4)               0.0000000      UZF19                                   
     20     (3,1,5)               0.0000000      UZF20                                   
     21     (3,1,6)               0.0000000      UZF21                                   
     22     (3,1,7)               0.0000000      UZF22                                   
     23     (3,1,8)               0.0000000      UZF23                                   
     24     (3,1,9)               0.0000000      UZF24                                   
 ----------------------------------------------------------------------------------------




 UZF-1 PACKAGE - SUMMARY OF FLOWS FOR EACH CONTROL VOLUME   PERIOD      5   STEP       23
 ----------------------------------------------------------------------------------------------------------------------------------------------------
                                                                                                                                           PERCENT   
   NUMBER   CELLID                  INFLOW      OUTFLOW        GWF      INFILTRATION   REJ INF        UZET       STORAGE      IN - OUT    DIFFERENCE 
 ----------------------------------------------------------------------------------------------------------------------------------------------------
     1      (1,1,2)               0.0000      -1.1760       0.0000       0.0000       0.0000       0.0000       1.1760       2.33147E-14  1.98249E-12
     2      (1,1,3)               0.0000      -1.1760       0.0000       0.0000       0.0000       0.0000       1.1760       2.33147E-14  1.98249E-12
     3      (1,1,4)               0.0000      -1.1760       0.0000       0.0000       0.0000       0.0000       1.1760       2.33147E-14  1.98249E-12
     4      (1,1,5)               0.0000      -1.1760       0.0000       0.0000       0.0000       0.0000       1.1760       2.33147E-14  1.98249E-12
     5      (1,1,6)               0.0000      -1.1760       0.0000       0.0000       0.0000       0.0000       1.1760       2.33147E-14  1.98249E-12
     6      (1,1,7)               0.0000      -1.1760       0.0000       0.0000       0.0000       0.0000       1.1760       2.33147E-14  1.98249E-12
     7      (1,1,8)               0.0000      -1.1760       0.0000       0.0000       0.0000       0.0000       1.1760       2.33147E-14  1.98249E-12
     8      (1,1,9)               0.0000      -1.1760       0.0000       0.0000       0.0000       0.0000       1.1760       2.33147E-14  1.98249E-12
     9      (2,1,2)               1.1760      -13.308       0.0000       0.0000       0.0000      -4.64640E-02  12.178       2.68431E-04  2.01008E-03
     10     (2,1,3)               1.1760      -13.308       0.0000       0.0000       0.0000      -4.64640E-02  12.178       2.68431E-04  2.01008E-03
     11     (2,1,4)               1.1760      -13.308       0.0000       0.0000       0.0000      -4.64640E-02  12.178       2.68431E-04  2.01008E-03
     12     (2,1,5)               1.1760      -13.308       0.0000       0.0000       0.0000      -4.64640E-02  12.178       2.68431E-04  2.01008E-03
     13     (2,1,6)               1.1760      -13.308       0.0000       0.0000       0.0000      -4.64640E-02  12.178       2.68431E-04  2.01008E-03
     14     (2,1,7)               1.1760      -13.308       0.0000       0.0000       0.0000      -4.64640E-02  12.178       2.68431E-04  2.01008E-03
     15     (2,1,8)               1.1760      -13.308       0.0000       0.0000       0.0000      -4.64640E-02  12.178       2.68431E-04  2.01008E-03
     16     (2,1,9)               1.1760      -13.308       0.0000       0.0000       0.0000      -4.64640E-02  12.178       2.68431E-04  2.01008E-03
     17     (3,1,2)               13.308       0.0000       0.0000       0.0000       0.0000       0.0000      -13.308       1.65946E-06  1.24700E-05
     18     (3,1,3)               13.308       0.0000       0.0000       0.0000       0.0000       0.0000      -13.308       1.65946E-06  1.24700E-05
     19     (3,1,4)               13.308       0.0000       0.0000       0.0000       0.0000       0.0000      -13.308       1.65946E-06  1.24700E-05
     20     (3,1,5)               13.308       0.0000       0.0000       0.0000       0.0000       0.0000      -13.308       1.65946E-06  1.24700E-05
     21     (3,1,6)               13.308       0.0000       0.0000       0.0000       0.0000       0.0000      -13.308       1.65946E-06  1.24700E-05
     22     (3,1,7)               13.308       0.0000       0.0000       0.0000       0.0000       0.0000      -13.308       1.65946E-06  1.24700E-05
     23     (3,1,8)               13.308       0.0000       0.0000       0.0000       0.0000       0.0000      -13.308       1.65946E-06  1.24700E-05
     24     (3,1,9)               13.308       0.0000       0.0000       0.0000       0.0000       0.0000      -13.308       1.65946E-06  1.24700E-05
 ----------------------------------------------------------------------------------------------------------------------------------------------------


1
  HEAD IN LAYER   1 AT END OF TIME STEP  23 IN STRESS PERIOD    5
  ---------------------------------------------------------------------------

            1           2           3           4           5           6           7           8           9          10
 ........................................................................................................................
   1   -25.00      -25.00      -25.00      -25.00      -25.00      -25.00      -25.00      -25.00      -25.00      -25.00    
1
  HEAD IN LAYER   2 AT END OF TIME STEP  23 IN STRESS PERIOD    5
  ---------------------------------------------------------------------------

            1           2           3           4           5           6           7           8           9          10
 ........................................................................................................................
   1   -25.00      -25.00      -25.00      -25.00      -25.00      -25.00      -25.00      -25.00      -25.00      -25.00    
1
  HEAD IN LAYER   3 AT END OF TIME STEP  23 IN STRESS PERIOD    5
  ---------------------------------------------------------------------------

            1           2           3           4           5           6           7           8           9          10
 ........................................................................................................................
   1   -25.00      -25.00      -25.00      -25.00      -25.00      -25.00      -25.00      -25.00      -25.00      -25.00    

 HEAD WILL BE SAVED ON UNIT 1022 AT END OF TIME STEP   23, STRESS PERIOD    5


  UZF-1 BUDGET FOR ENTIRE MODEL AT END OF TIME STEP   23, STRESS PERIOD   5
  ------------------------------------------------------------------------------

     CUMULATIVE UZF-1      L**3       RATES FOR THIS TIME STEP      L**3/T
     ------------------                 ------------------------

           IN:                                      IN:
           ---                                      ---
                 GWF =           0.0000                   GWF =           0.0000
        INFILTRATION =      480000.0000          INFILTRATION =           0.0000
             REJ-INF =           0.0000               REJ-INF =           0.0000
                UZET =           0.0000                  UZET =           0.0000
             STORAGE =      415660.5889               STORAGE =         106.8350

            TOTAL IN =      895660.5889              TOTAL IN =         106.8350

          OUT:                                     OUT:
          ----                                     ----
                 GWF =           0.0000                   GWF =           0.0000
        INFILTRATION =           0.0000          INFILTRATION =           0.0000
             REJ-INF =           0.0000               REJ-INF =           0.0000
                UZET =         723.7076                  UZET =           0.3717
             STORAGE =      894878.6925               STORAGE =         106.4611

           TOTAL OUT =      895602.4001             TOTAL OUT =         106.8328

            IN - OUT =          58.1888              IN - OUT =       2.1607E-03

 PERCENT DISCREPANCY =           0.01     PERCENT DISCREPANCY =           0.00



  VOLUME BUDGET FOR ENTIRE MODEL AT END OF TIME STEP   23, STRESS PERIOD   5
  ---------------------------------------------------------------------------------------------------

     CUMULATIVE VOLUME      L**3       RATES FOR THIS TIME STEP      L**3/T          PACKAGE NAME    
     ------------------                 ------------------------                     ----------------

           IN:                                      IN:
           ---                                      ---
              STO-SS =           0.0000                STO-SS =           0.0000     STORAGE         
              STO-SY =           0.0000                STO-SY =           0.0000     STORAGE         
                 CHD =           0.0000                   CHD =           0.0000     CHD-1           
           UZF-GWRCH =           0.0000             UZF-GWRCH =           0.0000     UZF-1           
             UZF-GWD =           0.0000               UZF-GWD =           0.0000     UZF-1           
            UZF-GWET =           0.0000              UZF-GWET =           0.0000     UZF-1           

            TOTAL IN =           0.0000              TOTAL IN =           0.0000

          OUT:                                     OUT:
          ----                                     ----
              STO-SS =           0.0000                STO-SS =           0.0000     STORAGE         
              STO-SY =           0.0000                STO-SY =           0.0000     STORAGE         
                 CHD =           0.0000                   CHD =           0.0000     CHD-1           
           UZF-GWRCH =           0.0000             UZF-GWRCH =           0.0000     UZF-1           
             UZF-GWD =           0.0000               UZF-GWD =           0.0000     UZF-1           
            UZF-GWET =           0.0000              UZF-GWET =           0.0000     UZF-1           

           TOTAL OUT =           0.0000             TOTAL OUT =           0.0000

            IN - OUT =           0.0000              IN - OUT =           0.0000

 PERCENT DISCREPANCY =           0.00     PERCENT DISCREPANCY =           0.00




         TIME SUMMARY AT END OF TIME STEP   23 IN STRESS PERIOD    5
                    SECONDS     MINUTES      HOURS       DAYS        YEARS
                    -----------------------------------------------------------
   TIME STEP LENGTH 3.45600E+06  57600.      960.00      40.000     0.10951    
 STRESS PERIOD TIME 7.94880E+07 1.32480E+06  22080.      920.00      2.5188    
         TOTAL TIME 1.27872E+08 2.13120E+06  35520.      1480.0      4.0520    


end timestep


start timestep kper="5" kstp="24" mode="normal"

 UBDSV1 SAVING     FLOW-JA-FACE ON UNIT   1020 AT TIME STEP     24, STRESS PERIOD      5
 UBDSV06 SAVING     FLOW-JA-FACE IN MODEL GWF_1            PACKAGE UZF-1           CONNECTED TO MODEL GWF_1            PACKAGE UZF-1            ON UNIT   1014 AT TIME STEP     24, STRESS PERIOD      5
 UBDSV06 SAVING              GWF IN MODEL GWF_1            PACKAGE UZF-1           CONNECTED TO MODEL GWF_1            PACKAGE GWF_1            ON UNIT   1014 AT TIME STEP     24, STRESS PERIOD      5
 UBDSV06 SAVING     INFILTRATION IN MODEL GWF_1            PACKAGE UZF-1           CONNECTED TO MODEL GWF_1            PACKAGE UZF-1            ON UNIT   1014 AT TIME STEP     24, STRESS PERIOD      5
 UBDSV06 SAVING          REJ-INF IN MODEL GWF_1            PACKAGE UZF-1           CONNECTED TO MODEL GWF_1            PACKAGE UZF-1            ON UNIT   1014 AT TIME STEP     24, STRESS PERIOD      5
 UBDSV06 SAVING             UZET IN MODEL GWF_1            PACKAGE UZF-1           CONNECTED TO MODEL GWF_1            PACKAGE UZF-1            ON UNIT   1014 AT TIME STEP     24, STRESS PERIOD      5
 UBDSV06 SAVING          STORAGE IN MODEL GWF_1            PACKAGE UZF-1           CONNECTED TO MODEL GWF_1            PACKAGE UZF-1            ON UNIT   1014 AT TIME STEP     24, STRESS PERIOD      5

 CHD PACKAGE (CHD-1) FLOW RATES   PERIOD      5   STEP       24
 -----------------------------------------------
   NUMBER   CELLID                    RATE      
 -----------------------------------------------
     1      (3,1,1)              -9.6896590     
     2      (3,1,10)             -9.6896590     
 -----------------------------------------------




 UZF-GWRCH PACKAGE (UZF-1) FLOW RATES   PERIOD      5   STEP       24
 ----------------------------------------------------------------------------------------
   NUMBER   CELLID                    RATE       NAME                                    
 ----------------------------------------------------------------------------------------
     1      (1,1,2)               0.0000000      UZF01                                   
     2      (1,1,3)               0.0000000      UZF02                                   
     3      (1,1,4)               0.0000000      UZF03                                   
     4      (1,1,5)               0.0000000      UZF04                                   
     5      (1,1,6)               0.0000000      UZF05                                   
     6      (1,1,7)               0.0000000      UZF06                                   
     7      (1,1,8)               0.0000000      UZF07                                   
     8      (1,1,9)               0.0000000      UZF08                                   
     9      (2,1,2)               0.0000000      UZF08                                   
     10     (2,1,3)               0.0000000      UZF10                                   
     11     (2,1,4)               0.0000000      UZF11                                   
     12     (2,1,5)               0.0000000      UZF12                                   
     13     (2,1,6)               0.0000000      UZF13                                   
     14     (2,1,7)               0.0000000      UZF14                                   
     15     (2,1,8)               0.0000000      UZF15                                   
     16     (2,1,9)               0.0000000      UZF16                                   
     17     (3,1,2)               15.348939      UZF17                                   
     18     (3,1,3)               16.010954      UZF18                                   
     19     (3,1,4)               16.278257      UZF19                                   
     20     (3,1,5)               16.372742      UZF20                                   
     21     (3,1,6)               16.372742      UZF21                                   
     22     (3,1,7)               16.278257      UZF22                                   
     23     (3,1,8)               16.010954      UZF23                                   
     24     (3,1,9)               15.348939      UZF24                                   
 ----------------------------------------------------------------------------------------




 UZF-GWD PACKAGE (UZF-1) FLOW RATES   PERIOD      5   STEP       24
 ----------------------------------------------------------------------------------------
   NUMBER   CELLID                    RATE       NAME                                    
 ----------------------------------------------------------------------------------------
     1      (1,1,2)               0.0000000      UZF01                                   
     2      (1,1,3)               0.0000000      UZF02                                   
     3      (1,1,4)               0.0000000      UZF03                                   
     4      (1,1,5)               0.0000000      UZF04                                   
     5      (1,1,6)               0.0000000      UZF05                                   
     6      (1,1,7)               0.0000000      UZF06                                   
     7      (1,1,8)               0.0000000      UZF07                                   
     8      (1,1,9)               0.0000000      UZF08                                   
     9      (2,1,2)               0.0000000      UZF08                                   
     10     (2,1,3)               0.0000000      UZF10                                   
     11     (2,1,4)               0.0000000      UZF11                                   
     12     (2,1,5)               0.0000000      UZF12                                   
     13     (2,1,6)               0.0000000      UZF13                                   
     14     (2,1,7)               0.0000000      UZF14                                   
     15     (2,1,8)               0.0000000      UZF15                                   
     16     (2,1,9)               0.0000000      UZF16                                   
     17     (3,1,2)               0.0000000      UZF17                                   
     18     (3,1,3)               0.0000000      UZF18                                   
     19     (3,1,4)               0.0000000      UZF19                                   
     20     (3,1,5)               0.0000000      UZF20                                   
     21     (3,1,6)               0.0000000      UZF21                                   
     22     (3,1,7)               0.0000000      UZF22                                   
     23     (3,1,8)               0.0000000      UZF23                                   
     24     (3,1,9)               0.0000000      UZF24                                   
 ----------------------------------------------------------------------------------------




 UZF-GWET PACKAGE (UZF-1) FLOW RATES   PERIOD      5   STEP       24
 ----------------------------------------------------------------------------------------
   NUMBER   CELLID                    RATE       NAME                                    
 ----------------------------------------------------------------------------------------
     1      (1,1,2)               0.0000000      UZF01                                   
     2      (1,1,3)               0.0000000      UZF02                                   
     3      (1,1,4)               0.0000000      UZF03                                   
     4      (1,1,5)               0.0000000      UZF04                                   
     5      (1,1,6)               0.0000000      UZF05                                   
     6      (1,1,7)               0.0000000      UZF06                                   
     7      (1,1,8)               0.0000000      UZF07                                   
     8      (1,1,9)               0.0000000      UZF08                                   
     9      (2,1,2)               0.0000000      UZF08                                   
     10     (2,1,3)               0.0000000      UZF10                                   
     11     (2,1,4)               0.0000000      UZF11                                   
     12     (2,1,5)               0.0000000      UZF12                                   
     13     (2,1,6)               0.0000000      UZF13                                   
     14     (2,1,7)               0.0000000      UZF14                                   
     15     (2,1,8)               0.0000000      UZF15                                   
     16     (2,1,9)               0.0000000      UZF16                                   
     17     (3,1,2)               0.0000000      UZF17                                   
     18     (3,1,3)               0.0000000      UZF18                                   
     19     (3,1,4)               0.0000000      UZF19                                   
     20     (3,1,5)               0.0000000      UZF20                                   
     21     (3,1,6)               0.0000000      UZF21                                   
     22     (3,1,7)               0.0000000      UZF22                                   
     23     (3,1,8)               0.0000000      UZF23                                   
     24     (3,1,9)               0.0000000      UZF24                                   
 ----------------------------------------------------------------------------------------




 UZF-1 PACKAGE - SUMMARY OF FLOWS FOR EACH CONTROL VOLUME   PERIOD      5   STEP       24
 ----------------------------------------------------------------------------------------------------------------------------------------------------
                                                                                                                                           PERCENT   
   NUMBER   CELLID                  INFLOW      OUTFLOW        GWF      INFILTRATION   REJ INF        UZET       STORAGE      IN - OUT    DIFFERENCE 
 ----------------------------------------------------------------------------------------------------------------------------------------------------
     1      (1,1,2)               0.0000      -1.1760       0.0000       0.0000       0.0000       0.0000       1.1760       2.33147E-14  1.98249E-12
     2      (1,1,3)               0.0000      -1.1760       0.0000       0.0000       0.0000       0.0000       1.1760       2.33147E-14  1.98249E-12
     3      (1,1,4)               0.0000      -1.1760       0.0000       0.0000       0.0000       0.0000       1.1760       2.33147E-14  1.98249E-12
     4      (1,1,5)               0.0000      -1.1760       0.0000       0.0000       0.0000       0.0000       1.1760       2.33147E-14  1.98249E-12
     5      (1,1,6)               0.0000      -1.1760       0.0000       0.0000       0.0000       0.0000       1.1760       2.33147E-14  1.98249E-12
     6      (1,1,7)               0.0000      -1.1760       0.0000       0.0000       0.0000       0.0000       1.1760       2.33147E-14  1.98249E-12
     7      (1,1,8)               0.0000      -1.1760       0.0000       0.0000       0.0000       0.0000       1.1760       2.33147E-14  1.98249E-12
     8      (1,1,9)               0.0000      -1.1760       0.0000       0.0000       0.0000       0.0000       1.1760       2.33147E-14  1.98249E-12
     9      (2,1,2)               1.1760      -13.044       0.0000       0.0000       0.0000      -4.53942E-02  11.914       2.76485E-04  2.11222E-03
     10     (2,1,3)               1.1760      -13.044       0.0000       0.0000       0.0000      -4.53942E-02  11.914       2.76485E-04  2.11222E-03
     11     (2,1,4)               1.1760      -13.044       0.0000       0.0000       0.0000      -4.53942E-02  11.914       2.76485E-04  2.11222E-03
     12     (2,1,5)               1.1760      -13.044       0.0000       0.0000       0.0000      -4.53942E-02  11.914       2.76485E-04  2.11222E-03
     13     (2,1,6)               1.1760      -13.044       0.0000       0.0000       0.0000      -4.53942E-02  11.914       2.76485E-04  2.11222E-03
     14     (2,1,7)               1.1760      -13.044       0.0000       0.0000       0.0000      -4.53942E-02  11.914       2.76485E-04  2.11222E-03
     15     (2,1,8)               1.1760      -13.044       0.0000       0.0000       0.0000      -4.53942E-02  11.914       2.76485E-04  2.11222E-03
     16     (2,1,9)               1.1760      -13.044       0.0000       0.0000       0.0000      -4.53942E-02  11.914       2.76485E-04  2.11222E-03
     17     (3,1,2)               13.044       0.0000      -15.349       0.0000       0.0000       0.0000       2.3047       1.62940E-06  1.06157E-05
     18     (3,1,3)               13.044       0.0000      -16.011       0.0000       0.0000       0.0000       2.9667       1.62940E-06  1.01768E-05
     19     (3,1,4)               13.044       0.0000      -16.278       0.0000       0.0000       0.0000       3.2340       1.62940E-06  1.00096E-05
     20     (3,1,5)               13.044       0.0000      -16.373       0.0000       0.0000       0.0000       3.3285       1.62940E-06  9.95188E-06
     21     (3,1,6)               13.044       0.0000      -16.373       0.0000       0.0000       0.0000       3.3285       1.62940E-06  9.95188E-06
     22     (3,1,7)               13.044       0.0000      -16.278       0.0000       0.0000       0.0000       3.2340       1.62940E-06  1.00096E-05
     23     (3,1,8)               13.044       0.0000      -16.011       0.0000       0.0000       0.0000       2.9667       1.62940E-06  1.01768E-05
     24     (3,1,9)               13.044       0.0000      -15.349       0.0000       0.0000       0.0000       2.3047       1.62940E-06  1.06157E-05
 ----------------------------------------------------------------------------------------------------------------------------------------------------


1
  HEAD IN LAYER   1 AT END OF TIME STEP  24 IN STRESS PERIOD    5
  ---------------------------------------------------------------------------

            1           2           3           4           5           6           7           8           9          10
 ........................................................................................................................
   1   -25.00      -24.98      -24.97      -24.97      -24.97      -24.97      -24.97      -24.97      -24.98      -25.00    
1
  HEAD IN LAYER   2 AT END OF TIME STEP  24 IN STRESS PERIOD    5
  ---------------------------------------------------------------------------

            1           2           3           4           5           6           7           8           9          10
 ........................................................................................................................
   1   -25.00      -24.98      -24.97      -24.97      -24.97      -24.97      -24.97      -24.97      -24.98      -25.00    
1
  HEAD IN LAYER   3 AT END OF TIME STEP  24 IN STRESS PERIOD    5
  ---------------------------------------------------------------------------

            1           2           3           4           5           6           7           8           9          10
 ........................................................................................................................
   1   -25.00      -24.98      -24.97      -24.97      -24.97      -24.97      -24.97      -24.97      -24.98      -25.00    

 HEAD WILL BE SAVED ON UNIT 1022 AT END OF TIME STEP   24, STRESS PERIOD    5


  UZF-1 BUDGET FOR ENTIRE MODEL AT END OF TIME STEP   24, STRESS PERIOD   5
  ------------------------------------------------------------------------------

     CUMULATIVE UZF-1      L**3       RATES FOR THIS TIME STEP      L**3/T
     ------------------                 ------------------------

           IN:                                      IN:
           ---                                      ---
                 GWF =           0.0000                   GWF =           0.0000
        INFILTRATION =      480000.0000          INFILTRATION =           0.0000
             REJ-INF =           0.0000               REJ-INF =           0.0000
                UZET =           0.0000                  UZET =           0.0000
             STORAGE =      420796.0754               STORAGE =         128.3872

            TOTAL IN =      900796.0754              TOTAL IN =         128.3872

          OUT:                                     OUT:
          ----                                     ----
                 GWF =        5120.8714                   GWF =         128.0218
        INFILTRATION =           0.0000          INFILTRATION =           0.0000
             REJ-INF =           0.0000               REJ-INF =           0.0000
                UZET =         738.2337                  UZET =           0.3632
             STORAGE =      894878.6925               STORAGE =           0.0000

           TOTAL OUT =      900737.7976             TOTAL OUT =         128.3849

            IN - OUT =          58.2778              IN - OUT =       2.2249E-03

 PERCENT DISCREPANCY =           0.01     PERCENT DISCREPANCY =           0.00



  VOLUME BUDGET FOR ENTIRE MODEL AT END OF TIME STEP   24, STRESS PERIOD   5
  ---------------------------------------------------------------------------------------------------

     CUMULATIVE VOLUME      L**3       RATES FOR THIS TIME STEP      L**3/T          PACKAGE NAME    
     ------------------                 ------------------------                     ----------------

           IN:                                      IN:
           ---                                      ---
              STO-SS =           0.0000                STO-SS =           0.0000     STORAGE         
              STO-SY =           0.0000                STO-SY =           0.0000     STORAGE         
                 CHD =           0.0000                   CHD =           0.0000     CHD-1           
           UZF-GWRCH =        5120.8714             UZF-GWRCH =         128.0218     UZF-1           
             UZF-GWD =           0.0000               UZF-GWD =           0.0000     UZF-1           
            UZF-GWET =           0.0000              UZF-GWET =           0.0000     UZF-1           

            TOTAL IN =        5120.8714              TOTAL IN =         128.0218

          OUT:                                     OUT:
          ----                                     ----
              STO-SS =           1.0892                STO-SS =       2.7230E-02     STORAGE         
              STO-SY =        4344.6032                STO-SY =         108.6151     STORAGE         
                 CHD =         775.1727                   CHD =          19.3793     CHD-1           
           UZF-GWRCH =           0.0000             UZF-GWRCH =           0.0000     UZF-1           
             UZF-GWD =           0.0000               UZF-GWD =           0.0000     UZF-1           
            UZF-GWET =           0.0000              UZF-GWET =           0.0000     UZF-1           

           TOTAL OUT =        5120.8651             TOTAL OUT =         128.0216

            IN - OUT =       6.2506E-03              IN - OUT =       1.5627E-04

 PERCENT DISCREPANCY =           0.00     PERCENT DISCREPANCY =           0.00




         TIME SUMMARY AT END OF TIME STEP   24 IN STRESS PERIOD    5
                    SECONDS     MINUTES      HOURS       DAYS        YEARS
                    -----------------------------------------------------------
   TIME STEP LENGTH 3.45600E+06  57600.      960.00      40.000     0.10951    
 STRESS PERIOD TIME 8.29440E+07 1.38240E+06  23040.      960.00      2.6283    
         TOTAL TIME 1.31328E+08 2.18880E+06  36480.      1520.0      4.1615    


end timestep


start timestep kper="5" kstp="25" mode="normal"

 UBDSV1 SAVING     FLOW-JA-FACE ON UNIT   1020 AT TIME STEP     25, STRESS PERIOD      5
 UBDSV06 SAVING     FLOW-JA-FACE IN MODEL GWF_1            PACKAGE UZF-1           CONNECTED TO MODEL GWF_1            PACKAGE UZF-1            ON UNIT   1014 AT TIME STEP     25, STRESS PERIOD      5
 UBDSV06 SAVING              GWF IN MODEL GWF_1            PACKAGE UZF-1           CONNECTED TO MODEL GWF_1            PACKAGE GWF_1            ON UNIT   1014 AT TIME STEP     25, STRESS PERIOD      5
 UBDSV06 SAVING     INFILTRATION IN MODEL GWF_1            PACKAGE UZF-1           CONNECTED TO MODEL GWF_1            PACKAGE UZF-1            ON UNIT   1014 AT TIME STEP     25, STRESS PERIOD      5
 UBDSV06 SAVING          REJ-INF IN MODEL GWF_1            PACKAGE UZF-1           CONNECTED TO MODEL GWF_1            PACKAGE UZF-1            ON UNIT   1014 AT TIME STEP     25, STRESS PERIOD      5
 UBDSV06 SAVING             UZET IN MODEL GWF_1            PACKAGE UZF-1           CONNECTED TO MODEL GWF_1            PACKAGE UZF-1            ON UNIT   1014 AT TIME STEP     25, STRESS PERIOD      5
 UBDSV06 SAVING          STORAGE IN MODEL GWF_1            PACKAGE UZF-1           CONNECTED TO MODEL GWF_1            PACKAGE UZF-1            ON UNIT   1014 AT TIME STEP     25, STRESS PERIOD      5

 CHD PACKAGE (CHD-1) FLOW RATES   PERIOD      5   STEP       25
 -----------------------------------------------
   NUMBER   CELLID                    RATE      
 -----------------------------------------------
     1      (3,1,1)              -17.587622     
     2      (3,1,10)             -17.587622     
 -----------------------------------------------




 UZF-GWRCH PACKAGE (UZF-1) FLOW RATES   PERIOD      5   STEP       25
 ----------------------------------------------------------------------------------------
   NUMBER   CELLID                    RATE       NAME                                    
 ----------------------------------------------------------------------------------------
     1      (1,1,2)               0.0000000      UZF01                                   
     2      (1,1,3)               0.0000000      UZF02                                   
     3      (1,1,4)               0.0000000      UZF03                                   
     4      (1,1,5)               0.0000000      UZF04                                   
     5      (1,1,6)               0.0000000      UZF05                                   
     6      (1,1,7)               0.0000000      UZF06                                   
     7      (1,1,8)               0.0000000      UZF07                                   
     8      (1,1,9)               0.0000000      UZF08                                   
     9      (2,1,2)               0.0000000      UZF08                                   
     10     (2,1,3)               0.0000000      UZF10                                   
     11     (2,1,4)               0.0000000      UZF11                                   
     12     (2,1,5)               0.0000000      UZF12                                   
     13     (2,1,6)               0.0000000      UZF13                                   
     14     (2,1,7)               0.0000000      UZF14                                   
     15     (2,1,8)               0.0000000      UZF15                                   
     16     (2,1,9)               0.0000000      UZF16                                   
     17     (3,1,2)               16.514603      UZF17                                   
     18     (3,1,3)               17.317776      UZF18                                   
     19     (3,1,4)               17.743136      UZF19                                   
     20     (3,1,5)               17.921392      UZF20                                   
     21     (3,1,6)               17.921392      UZF21                                   
     22     (3,1,7)               17.743136      UZF22                                   
     23     (3,1,8)               17.317776      UZF23                                   
     24     (3,1,9)               16.514603      UZF24                                   
 ----------------------------------------------------------------------------------------




 UZF-GWD PACKAGE (UZF-1) FLOW RATES   PERIOD      5   STEP       25
 ----------------------------------------------------------------------------------------
   NUMBER   CELLID                    RATE       NAME                                    
 ----------------------------------------------------------------------------------------
     1      (1,1,2)               0.0000000      UZF01                                   
     2      (1,1,3)               0.0000000      UZF02                                   
     3      (1,1,4)               0.0000000      UZF03                                   
     4      (1,1,5)               0.0000000      UZF04                                   
     5      (1,1,6)               0.0000000      UZF05                                   
     6      (1,1,7)               0.0000000      UZF06                                   
     7      (1,1,8)               0.0000000      UZF07                                   
     8      (1,1,9)               0.0000000      UZF08                                   
     9      (2,1,2)               0.0000000      UZF08                                   
     10     (2,1,3)               0.0000000      UZF10                                   
     11     (2,1,4)               0.0000000      UZF11                                   
     12     (2,1,5)               0.0000000      UZF12                                   
     13     (2,1,6)               0.0000000      UZF13                                   
     14     (2,1,7)               0.0000000      UZF14                                   
     15     (2,1,8)               0.0000000      UZF15                                   
     16     (2,1,9)               0.0000000      UZF16                                   
     17     (3,1,2)               0.0000000      UZF17                                   
     18     (3,1,3)               0.0000000      UZF18                                   
     19     (3,1,4)               0.0000000      UZF19                                   
     20     (3,1,5)               0.0000000      UZF20                                   
     21     (3,1,6)               0.0000000      UZF21                                   
     22     (3,1,7)               0.0000000      UZF22                                   
     23     (3,1,8)               0.0000000      UZF23                                   
     24     (3,1,9)               0.0000000      UZF24                                   
 ----------------------------------------------------------------------------------------




 UZF-GWET PACKAGE (UZF-1) FLOW RATES   PERIOD      5   STEP       25
 ----------------------------------------------------------------------------------------
   NUMBER   CELLID                    RATE       NAME                                    
 ----------------------------------------------------------------------------------------
     1      (1,1,2)               0.0000000      UZF01                                   
     2      (1,1,3)               0.0000000      UZF02                                   
     3      (1,1,4)               0.0000000      UZF03                                   
     4      (1,1,5)               0.0000000      UZF04                                   
     5      (1,1,6)               0.0000000      UZF05                                   
     6      (1,1,7)               0.0000000      UZF06                                   
     7      (1,1,8)               0.0000000      UZF07                                   
     8      (1,1,9)               0.0000000      UZF08                                   
     9      (2,1,2)               0.0000000      UZF08                                   
     10     (2,1,3)               0.0000000      UZF10                                   
     11     (2,1,4)               0.0000000      UZF11                                   
     12     (2,1,5)               0.0000000      UZF12                                   
     13     (2,1,6)               0.0000000      UZF13                                   
     14     (2,1,7)               0.0000000      UZF14                                   
     15     (2,1,8)               0.0000000      UZF15                                   
     16     (2,1,9)               0.0000000      UZF16                                   
     17     (3,1,2)               0.0000000      UZF17                                   
     18     (3,1,3)               0.0000000      UZF18                                   
     19     (3,1,4)               0.0000000      UZF19                                   
     20     (3,1,5)               0.0000000      UZF20                                   
     21     (3,1,6)               0.0000000      UZF21                                   
     22     (3,1,7)               0.0000000      UZF22                                   
     23     (3,1,8)               0.0000000      UZF23                                   
     24     (3,1,9)               0.0000000      UZF24                                   
 ----------------------------------------------------------------------------------------




 UZF-1 PACKAGE - SUMMARY OF FLOWS FOR EACH CONTROL VOLUME   PERIOD      5   STEP       25
 ----------------------------------------------------------------------------------------------------------------------------------------------------
                                                                                                                                           PERCENT   
   NUMBER   CELLID                  INFLOW      OUTFLOW        GWF      INFILTRATION   REJ INF        UZET       STORAGE      IN - OUT    DIFFERENCE 
 ----------------------------------------------------------------------------------------------------------------------------------------------------
     1      (1,1,2)               0.0000      -1.1760       0.0000       0.0000       0.0000       0.0000       1.1760      -1.33005E-13 -1.13097E-11
     2      (1,1,3)               0.0000      -1.1760       0.0000       0.0000       0.0000       0.0000       1.1760      -1.33005E-13 -1.13097E-11
     3      (1,1,4)               0.0000      -1.1760       0.0000       0.0000       0.0000       0.0000       1.1760      -1.33005E-13 -1.13097E-11
     4      (1,1,5)               0.0000      -1.1760       0.0000       0.0000       0.0000       0.0000       1.1760      -1.33005E-13 -1.13097E-11
     5      (1,1,6)               0.0000      -1.1760       0.0000       0.0000       0.0000       0.0000       1.1760      -1.33005E-13 -1.13097E-11
     6      (1,1,7)               0.0000      -1.1760       0.0000       0.0000       0.0000       0.0000       1.1760      -1.33005E-13 -1.13097E-11
     7      (1,1,8)               0.0000      -1.1760       0.0000       0.0000       0.0000       0.0000       1.1760      -1.33005E-13 -1.13097E-11
     8      (1,1,9)               0.0000      -1.1760       0.0000       0.0000       0.0000       0.0000       1.1760      -1.33005E-13 -1.13097E-11
     9      (2,1,2)               1.1760      -11.636       0.0000       0.0000       0.0000      -4.43243E-02  10.505       2.84112E-04  2.43233E-03
     10     (2,1,3)               1.1760      -11.636       0.0000       0.0000       0.0000      -4.43243E-02  10.505       2.84112E-04  2.43233E-03
     11     (2,1,4)               1.1760      -11.636       0.0000       0.0000       0.0000      -4.43243E-02  10.505       2.84112E-04  2.43233E-03
     12     (2,1,5)               1.1760      -11.636       0.0000       0.0000       0.0000      -4.43243E-02  10.505       2.84112E-04  2.43233E-03
     13     (2,1,6)               1.1760      -11.636       0.0000       0.0000       0.0000      -4.43243E-02  10.505       2.84112E-04  2.43233E-03
     14     (2,1,7)               1.1760      -11.636       0.0000       0.0000       0.0000      -4.43243E-02  10.505       2.84112E-04  2.43233E-03
     15     (2,1,8)               1.1760      -11.636       0.0000       0.0000       0.0000      -4.43243E-02  10.505       2.84112E-04  2.43233E-03
     16     (2,1,9)               1.1760      -11.636       0.0000       0.0000       0.0000      -4.43243E-02  10.505       2.84112E-04  2.43233E-03
     17     (3,1,2)               11.636       0.0000      -16.515       0.0000       0.0000       0.0000       4.8784       1.50485E-06  9.11221E-06
     18     (3,1,3)               11.636       0.0000      -17.318       0.0000       0.0000       0.0000       5.6816       1.50485E-06  8.68960E-06
     19     (3,1,4)               11.636       0.0000      -17.743       0.0000       0.0000       0.0000       6.1070       1.50485E-06  8.48128E-06
     20     (3,1,5)               11.636       0.0000      -17.921       0.0000       0.0000       0.0000       6.2852       1.50485E-06  8.39692E-06
     21     (3,1,6)               11.636       0.0000      -17.921       0.0000       0.0000       0.0000       6.2852       1.50485E-06  8.39692E-06
     22     (3,1,7)               11.636       0.0000      -17.743       0.0000       0.0000       0.0000       6.1070       1.50485E-06  8.48128E-06
     23     (3,1,8)               11.636       0.0000      -17.318       0.0000       0.0000       0.0000       5.6816       1.50485E-06  8.68960E-06
     24     (3,1,9)               11.636       0.0000      -16.515       0.0000       0.0000       0.0000       4.8784       1.50485E-06  9.11221E-06
 ----------------------------------------------------------------------------------------------------------------------------------------------------


1
  HEAD IN LAYER   1 AT END OF TIME STEP  25 IN STRESS PERIOD    5
  ---------------------------------------------------------------------------

            1           2           3           4           5           6           7           8           9          10
 ........................................................................................................................
   1   -25.00      -24.97      -24.95      -24.94      -24.94      -24.94      -24.94      -24.95      -24.97      -25.00    
1
  HEAD IN LAYER   2 AT END OF TIME STEP  25 IN STRESS PERIOD    5
  ---------------------------------------------------------------------------

            1           2           3           4           5           6           7           8           9          10
 ........................................................................................................................
   1   -25.00      -24.97      -24.95      -24.94      -24.94      -24.94      -24.94      -24.95      -24.97      -25.00    
1
  HEAD IN LAYER   3 AT END OF TIME STEP  25 IN STRESS PERIOD    5
  ---------------------------------------------------------------------------

            1           2           3           4           5           6           7           8           9          10
 ........................................................................................................................
   1   -25.00      -24.97      -24.95      -24.94      -24.94      -24.94      -24.94      -24.95      -24.97      -25.00    

 HEAD WILL BE SAVED ON UNIT 1022 AT END OF TIME STEP   25, STRESS PERIOD    5


  UZF-1 BUDGET FOR ENTIRE MODEL AT END OF TIME STEP   25, STRESS PERIOD   5
  ------------------------------------------------------------------------------

     CUMULATIVE UZF-1      L**3       RATES FOR THIS TIME STEP      L**3/T
     ------------------                 ------------------------

           IN:                                      IN:
           ---                                      ---
                 GWF =           0.0000                   GWF =           0.0000
        INFILTRATION =      480000.0000          INFILTRATION =           0.0000
             REJ-INF =           0.0000               REJ-INF =           0.0000
                UZET =           0.0000                  UZET =           0.0000
             STORAGE =      426370.1032               STORAGE =         139.3507

            TOTAL IN =      906370.1032              TOTAL IN =         139.3507

          OUT:                                     OUT:
          ----                                     ----
                 GWF =       10680.6240                   GWF =         138.9938
        INFILTRATION =           0.0000          INFILTRATION =           0.0000
             REJ-INF =           0.0000               REJ-INF =           0.0000
                UZET =         752.4175                  UZET =           0.3546
             STORAGE =      894878.6925               STORAGE =           0.0000

           TOTAL OUT =      906311.7340             TOTAL OUT =         139.3484

            IN - OUT =          58.3692              IN - OUT =       2.2849E-03

 PERCENT DISCREPANCY =           0.01     PERCENT DISCREPANCY =           0.00



  VOLUME BUDGET FOR ENTIRE MODEL AT END OF TIME STEP   25, STRESS PERIOD   5
  ---------------------------------------------------------------------------------------------------

     CUMULATIVE VOLUME      L**3       RATES FOR THIS TIME STEP      L**3/T          PACKAGE NAME    
     ------------------                 ------------------------                     ----------------

           IN:                                      IN:
           ---                                      ---
              STO-SS =           0.0000                STO-SS =           0.0000     STORAGE         
              STO-SY =           0.0000                STO-SY =           0.0000     STORAGE         
                 CHD =           0.0000                   CHD =           0.0000     CHD-1           
           UZF-GWRCH =       10680.6240             UZF-GWRCH =         138.9938     UZF-1           
             UZF-GWD =           0.0000               UZF-GWD =           0.0000     UZF-1           
            UZF-GWET =           0.0000              UZF-GWET =           0.0000     UZF-1           

            TOTAL IN =       10680.6240              TOTAL IN =         138.9938

          OUT:                                     OUT:
          ----                                     ----
              STO-SS =           2.1359                STO-SS =       2.6167E-02     STORAGE         
              STO-SY =        8496.2933                STO-SY =         103.7923     STORAGE         
                 CHD =        2182.1825                   CHD =          35.1752     CHD-1           
           UZF-GWRCH =           0.0000             UZF-GWRCH =           0.0000     UZF-1           
             UZF-GWD =           0.0000               UZF-GWD =           0.0000     UZF-1           
            UZF-GWET =           0.0000              UZF-GWET =           0.0000     UZF-1           

           TOTAL OUT =       10680.6116             TOTAL OUT =         138.9937

            IN - OUT =       1.2335E-02              IN - OUT =       1.5211E-04

 PERCENT DISCREPANCY =           0.00     PERCENT DISCREPANCY =           0.00




         TIME SUMMARY AT END OF TIME STEP   25 IN STRESS PERIOD    5
                    SECONDS     MINUTES      HOURS       DAYS        YEARS
                    -----------------------------------------------------------
   TIME STEP LENGTH 3.45600E+06  57600.      960.00      40.000     0.10951    
 STRESS PERIOD TIME 8.64000E+07 1.44000E+06  24000.      1000.0      2.7379    
         TOTAL TIME 1.34784E+08 2.24640E+06  37440.      1560.0      4.2710    


end timestep


start timestep kper="5" kstp="26" mode="normal"

 UBDSV1 SAVING     FLOW-JA-FACE ON UNIT   1020 AT TIME STEP     26, STRESS PERIOD      5
 UBDSV06 SAVING     FLOW-JA-FACE IN MODEL GWF_1            PACKAGE UZF-1           CONNECTED TO MODEL GWF_1            PACKAGE UZF-1            ON UNIT   1014 AT TIME STEP     26, STRESS PERIOD      5
 UBDSV06 SAVING              GWF IN MODEL GWF_1            PACKAGE UZF-1           CONNECTED TO MODEL GWF_1            PACKAGE GWF_1            ON UNIT   1014 AT TIME STEP     26, STRESS PERIOD      5
 UBDSV06 SAVING     INFILTRATION IN MODEL GWF_1            PACKAGE UZF-1           CONNECTED TO MODEL GWF_1            PACKAGE UZF-1            ON UNIT   1014 AT TIME STEP     26, STRESS PERIOD      5
 UBDSV06 SAVING          REJ-INF IN MODEL GWF_1            PACKAGE UZF-1           CONNECTED TO MODEL GWF_1            PACKAGE UZF-1            ON UNIT   1014 AT TIME STEP     26, STRESS PERIOD      5
 UBDSV06 SAVING             UZET IN MODEL GWF_1            PACKAGE UZF-1           CONNECTED TO MODEL GWF_1            PACKAGE UZF-1            ON UNIT   1014 AT TIME STEP     26, STRESS PERIOD      5
 UBDSV06 SAVING          STORAGE IN MODEL GWF_1            PACKAGE UZF-1           CONNECTED TO MODEL GWF_1            PACKAGE UZF-1            ON UNIT   1014 AT TIME STEP     26, STRESS PERIOD      5

 CHD PACKAGE (CHD-1) FLOW RATES   PERIOD      5   STEP       26
 -----------------------------------------------
   NUMBER   CELLID                    RATE      
 -----------------------------------------------
     1      (3,1,1)              -23.702310     
     2      (3,1,10)             -23.702310     
 -----------------------------------------------




 UZF-GWRCH PACKAGE (UZF-1) FLOW RATES   PERIOD      5   STEP       26
 ----------------------------------------------------------------------------------------
   NUMBER   CELLID                    RATE       NAME                                    
 ----------------------------------------------------------------------------------------
     1      (1,1,2)               0.0000000      UZF01                                   
     2      (1,1,3)               0.0000000      UZF02                                   
     3      (1,1,4)               0.0000000      UZF03                                   
     4      (1,1,5)               0.0000000      UZF04                                   
     5      (1,1,6)               0.0000000      UZF05                                   
     6      (1,1,7)               0.0000000      UZF06                                   
     7      (1,1,8)               0.0000000      UZF07                                   
     8      (1,1,9)               0.0000000      UZF08                                   
     9      (2,1,2)               0.0000000      UZF08                                   
     10     (2,1,3)               0.0000000      UZF10                                   
     11     (2,1,4)               0.0000000      UZF11                                   
     12     (2,1,5)               0.0000000      UZF12                                   
     13     (2,1,6)               0.0000000      UZF13                                   
     14     (2,1,7)               0.0000000      UZF14                                   
     15     (2,1,8)               0.0000000      UZF15                                   
     16     (2,1,9)               0.0000000      UZF16                                   
     17     (3,1,2)               16.209918      UZF17                                   
     18     (3,1,3)               16.962339      UZF18                                   
     19     (3,1,4)               17.429438      UZF19                                   
     20     (3,1,5)               17.646906      UZF20                                   
     21     (3,1,6)               17.646906      UZF21                                   
     22     (3,1,7)               17.429438      UZF22                                   
     23     (3,1,8)               16.962339      UZF23                                   
     24     (3,1,9)               16.209918      UZF24                                   
 ----------------------------------------------------------------------------------------




 UZF-GWD PACKAGE (UZF-1) FLOW RATES   PERIOD      5   STEP       26
 ----------------------------------------------------------------------------------------
   NUMBER   CELLID                    RATE       NAME                                    
 ----------------------------------------------------------------------------------------
     1      (1,1,2)               0.0000000      UZF01                                   
     2      (1,1,3)               0.0000000      UZF02                                   
     3      (1,1,4)               0.0000000      UZF03                                   
     4      (1,1,5)               0.0000000      UZF04                                   
     5      (1,1,6)               0.0000000      UZF05                                   
     6      (1,1,7)               0.0000000      UZF06                                   
     7      (1,1,8)               0.0000000      UZF07                                   
     8      (1,1,9)               0.0000000      UZF08                                   
     9      (2,1,2)               0.0000000      UZF08                                   
     10     (2,1,3)               0.0000000      UZF10                                   
     11     (2,1,4)               0.0000000      UZF11                                   
     12     (2,1,5)               0.0000000      UZF12                                   
     13     (2,1,6)               0.0000000      UZF13                                   
     14     (2,1,7)               0.0000000      UZF14                                   
     15     (2,1,8)               0.0000000      UZF15                                   
     16     (2,1,9)               0.0000000      UZF16                                   
     17     (3,1,2)               0.0000000      UZF17                                   
     18     (3,1,3)               0.0000000      UZF18                                   
     19     (3,1,4)               0.0000000      UZF19                                   
     20     (3,1,5)               0.0000000      UZF20                                   
     21     (3,1,6)               0.0000000      UZF21                                   
     22     (3,1,7)               0.0000000      UZF22                                   
     23     (3,1,8)               0.0000000      UZF23                                   
     24     (3,1,9)               0.0000000      UZF24                                   
 ----------------------------------------------------------------------------------------




 UZF-GWET PACKAGE (UZF-1) FLOW RATES   PERIOD      5   STEP       26
 ----------------------------------------------------------------------------------------
   NUMBER   CELLID                    RATE       NAME                                    
 ----------------------------------------------------------------------------------------
     1      (1,1,2)               0.0000000      UZF01                                   
     2      (1,1,3)               0.0000000      UZF02                                   
     3      (1,1,4)               0.0000000      UZF03                                   
     4      (1,1,5)               0.0000000      UZF04                                   
     5      (1,1,6)               0.0000000      UZF05                                   
     6      (1,1,7)               0.0000000      UZF06                                   
     7      (1,1,8)               0.0000000      UZF07                                   
     8      (1,1,9)               0.0000000      UZF08                                   
     9      (2,1,2)               0.0000000      UZF08                                   
     10     (2,1,3)               0.0000000      UZF10                                   
     11     (2,1,4)               0.0000000      UZF11                                   
     12     (2,1,5)               0.0000000      UZF12                                   
     13     (2,1,6)               0.0000000      UZF13                                   
     14     (2,1,7)               0.0000000      UZF14                                   
     15     (2,1,8)               0.0000000      UZF15                                   
     16     (2,1,9)               0.0000000      UZF16                                   
     17     (3,1,2)               0.0000000      UZF17                                   
     18     (3,1,3)               0.0000000      UZF18                                   
     19     (3,1,4)               0.0000000      UZF19                                   
     20     (3,1,5)               0.0000000      UZF20                                   
     21     (3,1,6)               0.0000000      UZF21                                   
     22     (3,1,7)               0.0000000      UZF22                                   
     23     (3,1,8)               0.0000000      UZF23                                   
     24     (3,1,9)               0.0000000      UZF24                                   
 ----------------------------------------------------------------------------------------




 UZF-1 PACKAGE - SUMMARY OF FLOWS FOR EACH CONTROL VOLUME   PERIOD      5   STEP       26
 ----------------------------------------------------------------------------------------------------------------------------------------------------
                                                                                                                                           PERCENT   
   NUMBER   CELLID                  INFLOW      OUTFLOW        GWF      INFILTRATION   REJ INF        UZET       STORAGE      IN - OUT    DIFFERENCE 
 ----------------------------------------------------------------------------------------------------------------------------------------------------
     1      (1,1,2)               0.0000      -1.1760       0.0000       0.0000       0.0000       0.0000       1.1760       2.33147E-14  1.98249E-12
     2      (1,1,3)               0.0000      -1.1760       0.0000       0.0000       0.0000       0.0000       1.1760       2.33147E-14  1.98249E-12
     3      (1,1,4)               0.0000      -1.1760       0.0000       0.0000       0.0000       0.0000       1.1760       2.33147E-14  1.98249E-12
     4      (1,1,5)               0.0000      -1.1760       0.0000       0.0000       0.0000       0.0000       1.1760       2.33147E-14  1.98249E-12
     5      (1,1,6)               0.0000      -1.1760       0.0000       0.0000       0.0000       0.0000       1.1760       2.33147E-14  1.98249E-12
     6      (1,1,7)               0.0000      -1.1760       0.0000       0.0000       0.0000       0.0000       1.1760       2.33147E-14  1.98249E-12
     7      (1,1,8)               0.0000      -1.1760       0.0000       0.0000       0.0000       0.0000       1.1760       2.33147E-14  1.98249E-12
     8      (1,1,9)               0.0000      -1.1760       0.0000       0.0000       0.0000       0.0000       1.1760       2.33147E-14  1.98249E-12
     9      (2,1,2)               1.1760      -11.632       0.0000       0.0000       0.0000      -4.32545E-02  10.500       2.91310E-04  2.49503E-03
     10     (2,1,3)               1.1760      -11.632       0.0000       0.0000       0.0000      -4.32545E-02  10.500       2.91310E-04  2.49503E-03
     11     (2,1,4)               1.1760      -11.632       0.0000       0.0000       0.0000      -4.32545E-02  10.500       2.91310E-04  2.49503E-03
     12     (2,1,5)               1.1760      -11.632       0.0000       0.0000       0.0000      -4.32545E-02  10.500       2.91310E-04  2.49503E-03
     13     (2,1,6)               1.1760      -11.632       0.0000       0.0000       0.0000      -4.32545E-02  10.500       2.91310E-04  2.49503E-03
     14     (2,1,7)               1.1760      -11.632       0.0000       0.0000       0.0000      -4.32545E-02  10.500       2.91310E-04  2.49503E-03
     15     (2,1,8)               1.1760      -11.632       0.0000       0.0000       0.0000      -4.32545E-02  10.500       2.91310E-04  2.49503E-03
     16     (2,1,9)               1.1760      -11.632       0.0000       0.0000       0.0000      -4.32545E-02  10.500       2.91310E-04  2.49503E-03
     17     (3,1,2)               11.632       0.0000      -16.210       0.0000       0.0000       0.0000       4.5777       1.49346E-06  9.21327E-06
     18     (3,1,3)               11.632       0.0000      -16.962       0.0000       0.0000       0.0000       5.3301       1.49346E-06  8.80458E-06
     19     (3,1,4)               11.632       0.0000      -17.429       0.0000       0.0000       0.0000       5.7972       1.49346E-06  8.56863E-06
     20     (3,1,5)               11.632       0.0000      -17.647       0.0000       0.0000       0.0000       6.0147       1.49346E-06  8.46303E-06
     21     (3,1,6)               11.632       0.0000      -17.647       0.0000       0.0000       0.0000       6.0147       1.49346E-06  8.46303E-06
     22     (3,1,7)               11.632       0.0000      -17.429       0.0000       0.0000       0.0000       5.7972       1.49346E-06  8.56863E-06
     23     (3,1,8)               11.632       0.0000      -16.962       0.0000       0.0000       0.0000       5.3301       1.49346E-06  8.80458E-06
     24     (3,1,9)               11.632       0.0000      -16.210       0.0000       0.0000       0.0000       4.5777       1.49346E-06  9.21327E-06
 ----------------------------------------------------------------------------------------------------------------------------------------------------


1
  HEAD IN LAYER   1 AT END OF TIME STEP  26 IN STRESS PERIOD    5
  ---------------------------------------------------------------------------

            1           2           3           4           5           6           7           8           9          10
 ........................................................................................................................
   1   -25.00      -24.95      -24.93      -24.91      -24.91      -24.91      -24.91      -24.93      -24.95      -25.00    
1
  HEAD IN LAYER   2 AT END OF TIME STEP  26 IN STRESS PERIOD    5
  ---------------------------------------------------------------------------

            1           2           3           4           5           6           7           8           9          10
 ........................................................................................................................
   1   -25.00      -24.95      -24.93      -24.91      -24.91      -24.91      -24.91      -24.93      -24.95      -25.00    
1
  HEAD IN LAYER   3 AT END OF TIME STEP  26 IN STRESS PERIOD    5
  ---------------------------------------------------------------------------

            1           2           3           4           5           6           7           8           9          10
 ........................................................................................................................
   1   -25.00      -24.95      -24.93      -24.91      -24.91      -24.91      -24.91      -24.93      -24.95      -25.00    

 HEAD WILL BE SAVED ON UNIT 1022 AT END OF TIME STEP   26, STRESS PERIOD    5


  UZF-1 BUDGET FOR ENTIRE MODEL AT END OF TIME STEP   26, STRESS PERIOD   5
  ------------------------------------------------------------------------------

     CUMULATIVE UZF-1      L**3       RATES FOR THIS TIME STEP      L**3/T
     ------------------                 ------------------------

           IN:                                      IN:
           ---                                      ---
                 GWF =           0.0000                   GWF =           0.0000
        INFILTRATION =      480000.0000          INFILTRATION =           0.0000
             REJ-INF =           0.0000               REJ-INF =           0.0000
                UZET =           0.0000                  UZET =           0.0000
             STORAGE =      431843.9264               STORAGE =         136.8456

            TOTAL IN =      911843.9264              TOTAL IN =         136.8456

          OUT:                                     OUT:
          ----                                     ----
                 GWF =       16140.5120                   GWF =         136.4972
        INFILTRATION =           0.0000          INFILTRATION =           0.0000
             REJ-INF =           0.0000               REJ-INF =           0.0000
                UZET =         766.2589                  UZET =           0.3460
             STORAGE =      894878.6925               STORAGE =           0.0000

           TOTAL OUT =      911785.4635             TOTAL OUT =         136.8432

            IN - OUT =          58.4629              IN - OUT =       2.3424E-03

 PERCENT DISCREPANCY =           0.01     PERCENT DISCREPANCY =           0.00



  VOLUME BUDGET FOR ENTIRE MODEL AT END OF TIME STEP   26, STRESS PERIOD   5
  ---------------------------------------------------------------------------------------------------

     CUMULATIVE VOLUME      L**3       RATES FOR THIS TIME STEP      L**3/T          PACKAGE NAME    
     ------------------                 ------------------------                     ----------------

           IN:                                      IN:
           ---                                      ---
              STO-SS =           0.0000                STO-SS =           0.0000     STORAGE         
              STO-SY =           0.0000                STO-SY =           0.0000     STORAGE         
                 CHD =           0.0000                   CHD =           0.0000     CHD-1           
           UZF-GWRCH =       16140.5120             UZF-GWRCH =         136.4972     UZF-1           
             UZF-GWD =           0.0000               UZF-GWD =           0.0000     UZF-1           
            UZF-GWET =           0.0000              UZF-GWET =           0.0000     UZF-1           

            TOTAL IN =       16140.5120              TOTAL IN =         136.4972

          OUT:                                     OUT:
          ----                                     ----
              STO-SS =           3.0388                STO-SS =       2.2573E-02     STORAGE         
              STO-SY =       12059.0883                STO-SY =          89.0699     STORAGE         
                 CHD =        4078.3673                   CHD =          47.4046     CHD-1           
           UZF-GWRCH =           0.0000             UZF-GWRCH =           0.0000     UZF-1           
             UZF-GWD =           0.0000               UZF-GWD =           0.0000     UZF-1           
            UZF-GWET =           0.0000              UZF-GWET =           0.0000     UZF-1           

           TOTAL OUT =       16140.4944             TOTAL OUT =         136.4971

            IN - OUT =       1.7608E-02              IN - OUT =       1.3183E-04

 PERCENT DISCREPANCY =           0.00     PERCENT DISCREPANCY =           0.00




         TIME SUMMARY AT END OF TIME STEP   26 IN STRESS PERIOD    5
                    SECONDS     MINUTES      HOURS       DAYS        YEARS
                    -----------------------------------------------------------
   TIME STEP LENGTH 3.45600E+06  57600.      960.00      40.000     0.10951    
 STRESS PERIOD TIME 8.98560E+07 1.49760E+06  24960.      1040.0      2.8474    
         TOTAL TIME 1.38240E+08 2.30400E+06  38400.      1600.0      4.3806    


end timestep


start timestep kper="5" kstp="27" mode="normal"

 UBDSV1 SAVING     FLOW-JA-FACE ON UNIT   1020 AT TIME STEP     27, STRESS PERIOD      5
 UBDSV06 SAVING     FLOW-JA-FACE IN MODEL GWF_1            PACKAGE UZF-1           CONNECTED TO MODEL GWF_1            PACKAGE UZF-1            ON UNIT   1014 AT TIME STEP     27, STRESS PERIOD      5
 UBDSV06 SAVING              GWF IN MODEL GWF_1            PACKAGE UZF-1           CONNECTED TO MODEL GWF_1            PACKAGE GWF_1            ON UNIT   1014 AT TIME STEP     27, STRESS PERIOD      5
 UBDSV06 SAVING     INFILTRATION IN MODEL GWF_1            PACKAGE UZF-1           CONNECTED TO MODEL GWF_1            PACKAGE UZF-1            ON UNIT   1014 AT TIME STEP     27, STRESS PERIOD      5
 UBDSV06 SAVING          REJ-INF IN MODEL GWF_1            PACKAGE UZF-1           CONNECTED TO MODEL GWF_1            PACKAGE UZF-1            ON UNIT   1014 AT TIME STEP     27, STRESS PERIOD      5
 UBDSV06 SAVING             UZET IN MODEL GWF_1            PACKAGE UZF-1           CONNECTED TO MODEL GWF_1            PACKAGE UZF-1            ON UNIT   1014 AT TIME STEP     27, STRESS PERIOD      5
 UBDSV06 SAVING          STORAGE IN MODEL GWF_1            PACKAGE UZF-1           CONNECTED TO MODEL GWF_1            PACKAGE UZF-1            ON UNIT   1014 AT TIME STEP     27, STRESS PERIOD      5

 CHD PACKAGE (CHD-1) FLOW RATES   PERIOD      5   STEP       27
 -----------------------------------------------
   NUMBER   CELLID                    RATE      
 -----------------------------------------------
     1      (3,1,1)              -28.726506     
     2      (3,1,10)             -28.726506     
 -----------------------------------------------




 UZF-GWRCH PACKAGE (UZF-1) FLOW RATES   PERIOD      5   STEP       27
 ----------------------------------------------------------------------------------------
   NUMBER   CELLID                    RATE       NAME                                    
 ----------------------------------------------------------------------------------------
     1      (1,1,2)               0.0000000      UZF01                                   
     2      (1,1,3)               0.0000000      UZF02                                   
     3      (1,1,4)               0.0000000      UZF03                                   
     4      (1,1,5)               0.0000000      UZF04                                   
     5      (1,1,6)               0.0000000      UZF05                                   
     6      (1,1,7)               0.0000000      UZF06                                   
     7      (1,1,8)               0.0000000      UZF07                                   
     8      (1,1,9)               0.0000000      UZF08                                   
     9      (2,1,2)               0.0000000      UZF08                                   
     10     (2,1,3)               0.0000000      UZF10                                   
     11     (2,1,4)               0.0000000      UZF11                                   
     12     (2,1,5)               0.0000000      UZF12                                   
     13     (2,1,6)               0.0000000      UZF13                                   
     14     (2,1,7)               0.0000000      UZF14                                   
     15     (2,1,8)               0.0000000      UZF15                                   
     16     (2,1,9)               0.0000000      UZF16                                   
     17     (3,1,2)               16.015611      UZF17                                   
     18     (3,1,3)               16.680918      UZF18                                   
     19     (3,1,4)               17.130431      UZF19                                   
     20     (3,1,5)               17.352834      UZF20                                   
     21     (3,1,6)               17.352834      UZF21                                   
     22     (3,1,7)               17.130431      UZF22                                   
     23     (3,1,8)               16.680918      UZF23                                   
     24     (3,1,9)               16.015611      UZF24                                   
 ----------------------------------------------------------------------------------------




 UZF-GWD PACKAGE (UZF-1) FLOW RATES   PERIOD      5   STEP       27
 ----------------------------------------------------------------------------------------
   NUMBER   CELLID                    RATE       NAME                                    
 ----------------------------------------------------------------------------------------
     1      (1,1,2)               0.0000000      UZF01                                   
     2      (1,1,3)               0.0000000      UZF02                                   
     3      (1,1,4)               0.0000000      UZF03                                   
     4      (1,1,5)               0.0000000      UZF04                                   
     5      (1,1,6)               0.0000000      UZF05                                   
     6      (1,1,7)               0.0000000      UZF06                                   
     7      (1,1,8)               0.0000000      UZF07                                   
     8      (1,1,9)               0.0000000      UZF08                                   
     9      (2,1,2)               0.0000000      UZF08                                   
     10     (2,1,3)               0.0000000      UZF10                                   
     11     (2,1,4)               0.0000000      UZF11                                   
     12     (2,1,5)               0.0000000      UZF12                                   
     13     (2,1,6)               0.0000000      UZF13                                   
     14     (2,1,7)               0.0000000      UZF14                                   
     15     (2,1,8)               0.0000000      UZF15                                   
     16     (2,1,9)               0.0000000      UZF16                                   
     17     (3,1,2)               0.0000000      UZF17                                   
     18     (3,1,3)               0.0000000      UZF18                                   
     19     (3,1,4)               0.0000000      UZF19                                   
     20     (3,1,5)               0.0000000      UZF20                                   
     21     (3,1,6)               0.0000000      UZF21                                   
     22     (3,1,7)               0.0000000      UZF22                                   
     23     (3,1,8)               0.0000000      UZF23                                   
     24     (3,1,9)               0.0000000      UZF24                                   
 ----------------------------------------------------------------------------------------




 UZF-GWET PACKAGE (UZF-1) FLOW RATES   PERIOD      5   STEP       27
 ----------------------------------------------------------------------------------------
   NUMBER   CELLID                    RATE       NAME                                    
 ----------------------------------------------------------------------------------------
     1      (1,1,2)               0.0000000      UZF01                                   
     2      (1,1,3)               0.0000000      UZF02                                   
     3      (1,1,4)               0.0000000      UZF03                                   
     4      (1,1,5)               0.0000000      UZF04                                   
     5      (1,1,6)               0.0000000      UZF05                                   
     6      (1,1,7)               0.0000000      UZF06                                   
     7      (1,1,8)               0.0000000      UZF07                                   
     8      (1,1,9)               0.0000000      UZF08                                   
     9      (2,1,2)               0.0000000      UZF08                                   
     10     (2,1,3)               0.0000000      UZF10                                   
     11     (2,1,4)               0.0000000      UZF11                                   
     12     (2,1,5)               0.0000000      UZF12                                   
     13     (2,1,6)               0.0000000      UZF13                                   
     14     (2,1,7)               0.0000000      UZF14                                   
     15     (2,1,8)               0.0000000      UZF15                                   
     16     (2,1,9)               0.0000000      UZF16                                   
     17     (3,1,2)               0.0000000      UZF17                                   
     18     (3,1,3)               0.0000000      UZF18                                   
     19     (3,1,4)               0.0000000      UZF19                                   
     20     (3,1,5)               0.0000000      UZF20                                   
     21     (3,1,6)               0.0000000      UZF21                                   
     22     (3,1,7)               0.0000000      UZF22                                   
     23     (3,1,8)               0.0000000      UZF23                                   
     24     (3,1,9)               0.0000000      UZF24                                   
 ----------------------------------------------------------------------------------------




 UZF-1 PACKAGE - SUMMARY OF FLOWS FOR EACH CONTROL VOLUME   PERIOD      5   STEP       27
 ----------------------------------------------------------------------------------------------------------------------------------------------------
                                                                                                                                           PERCENT   
   NUMBER   CELLID                  INFLOW      OUTFLOW        GWF      INFILTRATION   REJ INF        UZET       STORAGE      IN - OUT    DIFFERENCE 
 ----------------------------------------------------------------------------------------------------------------------------------------------------
     1      (1,1,2)               0.0000      -1.1760       0.0000       0.0000       0.0000       0.0000       1.1760       2.33147E-14  1.98249E-12
     2      (1,1,3)               0.0000      -1.1760       0.0000       0.0000       0.0000       0.0000       1.1760       2.33147E-14  1.98249E-12
     3      (1,1,4)               0.0000      -1.1760       0.0000       0.0000       0.0000       0.0000       1.1760       2.33147E-14  1.98249E-12
     4      (1,1,5)               0.0000      -1.1760       0.0000       0.0000       0.0000       0.0000       1.1760       2.33147E-14  1.98249E-12
     5      (1,1,6)               0.0000      -1.1760       0.0000       0.0000       0.0000       0.0000       1.1760       2.33147E-14  1.98249E-12
     6      (1,1,7)               0.0000      -1.1760       0.0000       0.0000       0.0000       0.0000       1.1760       2.33147E-14  1.98249E-12
     7      (1,1,8)               0.0000      -1.1760       0.0000       0.0000       0.0000       0.0000       1.1760       2.33147E-14  1.98249E-12
     8      (1,1,9)               0.0000      -1.1760       0.0000       0.0000       0.0000       0.0000       1.1760       2.33147E-14  1.98249E-12
     9      (2,1,2)               1.1760      -10.884       0.0000       0.0000       0.0000      -4.21847E-02  9.7502       2.98081E-04  2.72816E-03
     10     (2,1,3)               1.1760      -10.884       0.0000       0.0000       0.0000      -4.21847E-02  9.7502       2.98081E-04  2.72816E-03
     11     (2,1,4)               1.1760      -10.884       0.0000       0.0000       0.0000      -4.21847E-02  9.7502       2.98081E-04  2.72816E-03
     12     (2,1,5)               1.1760      -10.884       0.0000       0.0000       0.0000      -4.21847E-02  9.7502       2.98081E-04  2.72816E-03
     13     (2,1,6)               1.1760      -10.884       0.0000       0.0000       0.0000      -4.21847E-02  9.7502       2.98081E-04  2.72816E-03
     14     (2,1,7)               1.1760      -10.884       0.0000       0.0000       0.0000      -4.21847E-02  9.7502       2.98081E-04  2.72816E-03
     15     (2,1,8)               1.1760      -10.884       0.0000       0.0000       0.0000      -4.21847E-02  9.7502       2.98081E-04  2.72816E-03
     16     (2,1,9)               1.1760      -10.884       0.0000       0.0000       0.0000      -4.21847E-02  9.7502       2.98081E-04  2.72816E-03
     17     (3,1,2)               10.884       0.0000      -16.016       0.0000       0.0000       0.0000       5.1318       1.42705E-06  8.91035E-06
     18     (3,1,3)               10.884       0.0000      -16.681       0.0000       0.0000       0.0000       5.7971       1.42705E-06  8.55497E-06
     19     (3,1,4)               10.884       0.0000      -17.130       0.0000       0.0000       0.0000       6.2467       1.42705E-06  8.33048E-06
     20     (3,1,5)               10.884       0.0000      -17.353       0.0000       0.0000       0.0000       6.4691       1.42705E-06  8.22371E-06
     21     (3,1,6)               10.884       0.0000      -17.353       0.0000       0.0000       0.0000       6.4691       1.42705E-06  8.22371E-06
     22     (3,1,7)               10.884       0.0000      -17.130       0.0000       0.0000       0.0000       6.2467       1.42705E-06  8.33048E-06
     23     (3,1,8)               10.884       0.0000      -16.681       0.0000       0.0000       0.0000       5.7971       1.42705E-06  8.55497E-06
     24     (3,1,9)               10.884       0.0000      -16.016       0.0000       0.0000       0.0000       5.1318       1.42705E-06  8.91035E-06
 ----------------------------------------------------------------------------------------------------------------------------------------------------


1
  HEAD IN LAYER   1 AT END OF TIME STEP  27 IN STRESS PERIOD    5
  ---------------------------------------------------------------------------

            1           2           3           4           5           6           7           8           9          10
 ........................................................................................................................
   1   -25.00      -24.94      -24.91      -24.89      -24.88      -24.88      -24.89      -24.91      -24.94      -25.00    
1
  HEAD IN LAYER   2 AT END OF TIME STEP  27 IN STRESS PERIOD    5
  ---------------------------------------------------------------------------

            1           2           3           4           5           6           7           8           9          10
 ........................................................................................................................
   1   -25.00      -24.94      -24.91      -24.89      -24.88      -24.88      -24.89      -24.91      -24.94      -25.00    
1
  HEAD IN LAYER   3 AT END OF TIME STEP  27 IN STRESS PERIOD    5
  ---------------------------------------------------------------------------

            1           2           3           4           5           6           7           8           9          10
 ........................................................................................................................
   1   -25.00      -24.94      -24.91      -24.89      -24.88      -24.88      -24.89      -24.91      -24.94      -25.00    

 HEAD WILL BE SAVED ON UNIT 1022 AT END OF TIME STEP   27, STRESS PERIOD    5


  UZF-1 BUDGET FOR ENTIRE MODEL AT END OF TIME STEP   27, STRESS PERIOD   5
  ------------------------------------------------------------------------------

     CUMULATIVE UZF-1      L**3       RATES FOR THIS TIME STEP      L**3/T
     ------------------                 ------------------------

           IN:                                      IN:
           ---                                      ---
                 GWF =           0.0000                   GWF =           0.0000
        INFILTRATION =      480000.0000          INFILTRATION =           0.0000
             REJ-INF =           0.0000               REJ-INF =           0.0000
                UZET =           0.0000                  UZET =           0.0000
             STORAGE =      437231.9048               STORAGE =         134.6995

            TOTAL IN =      917231.9048              TOTAL IN =         134.6995

          OUT:                                     OUT:
          ----                                     ----
                 GWF =       21514.8955                   GWF =         134.3596
        INFILTRATION =           0.0000          INFILTRATION =           0.0000
             REJ-INF =           0.0000               REJ-INF =           0.0000
                UZET =         779.7581                  UZET =           0.3375
             STORAGE =      894878.6925               STORAGE =           0.0000

           TOTAL OUT =      917173.3460             TOTAL OUT =         134.6971

            IN - OUT =          58.5588              IN - OUT =       2.3961E-03

 PERCENT DISCREPANCY =           0.01     PERCENT DISCREPANCY =           0.00



  VOLUME BUDGET FOR ENTIRE MODEL AT END OF TIME STEP   27, STRESS PERIOD   5
  ---------------------------------------------------------------------------------------------------

     CUMULATIVE VOLUME      L**3       RATES FOR THIS TIME STEP      L**3/T          PACKAGE NAME    
     ------------------                 ------------------------                     ----------------

           IN:                                      IN:
           ---                                      ---
              STO-SS =           0.0000                STO-SS =           0.0000     STORAGE         
              STO-SY =           0.0000                STO-SY =           0.0000     STORAGE         
                 CHD =           0.0000                   CHD =           0.0000     CHD-1           
           UZF-GWRCH =       21514.8955             UZF-GWRCH =         134.3596     UZF-1           
             UZF-GWD =           0.0000               UZF-GWD =           0.0000     UZF-1           
            UZF-GWET =           0.0000              UZF-GWET =           0.0000     UZF-1           

            TOTAL IN =       21514.8955              TOTAL IN =         134.3596

          OUT:                                     OUT:
          ----                                     ----
              STO-SS =           3.8217                STO-SS =       1.9574E-02     STORAGE         
              STO-SY =       15134.5637                STO-SY =          76.8869     STORAGE         
                 CHD =        6376.4879                   CHD =          57.4530     CHD-1           
           UZF-GWRCH =           0.0000             UZF-GWRCH =           0.0000     UZF-1           
             UZF-GWD =           0.0000               UZF-GWD =           0.0000     UZF-1           
            UZF-GWET =           0.0000              UZF-GWET =           0.0000     UZF-1           

           TOTAL OUT =       21514.8733             TOTAL OUT =         134.3595

            IN - OUT =       2.2161E-02              IN - OUT =       1.1382E-04

 PERCENT DISCREPANCY =           0.00     PERCENT DISCREPANCY =           0.00




         TIME SUMMARY AT END OF TIME STEP   27 IN STRESS PERIOD    5
                    SECONDS     MINUTES      HOURS       DAYS        YEARS
                    -----------------------------------------------------------
   TIME STEP LENGTH 3.45600E+06  57600.      960.00      40.000     0.10951    
 STRESS PERIOD TIME 9.33120E+07 1.55520E+06  25920.      1080.0      2.9569    
         TOTAL TIME 1.41696E+08 2.36160E+06  39360.      1640.0      4.4901    


end timestep


start timestep kper="5" kstp="28" mode="normal"

 UBDSV1 SAVING     FLOW-JA-FACE ON UNIT   1020 AT TIME STEP     28, STRESS PERIOD      5
 UBDSV06 SAVING     FLOW-JA-FACE IN MODEL GWF_1            PACKAGE UZF-1           CONNECTED TO MODEL GWF_1            PACKAGE UZF-1            ON UNIT   1014 AT TIME STEP     28, STRESS PERIOD      5
 UBDSV06 SAVING              GWF IN MODEL GWF_1            PACKAGE UZF-1           CONNECTED TO MODEL GWF_1            PACKAGE GWF_1            ON UNIT   1014 AT TIME STEP     28, STRESS PERIOD      5
 UBDSV06 SAVING     INFILTRATION IN MODEL GWF_1            PACKAGE UZF-1           CONNECTED TO MODEL GWF_1            PACKAGE UZF-1            ON UNIT   1014 AT TIME STEP     28, STRESS PERIOD      5
 UBDSV06 SAVING          REJ-INF IN MODEL GWF_1            PACKAGE UZF-1           CONNECTED TO MODEL GWF_1            PACKAGE UZF-1            ON UNIT   1014 AT TIME STEP     28, STRESS PERIOD      5
 UBDSV06 SAVING             UZET IN MODEL GWF_1            PACKAGE UZF-1           CONNECTED TO MODEL GWF_1            PACKAGE UZF-1            ON UNIT   1014 AT TIME STEP     28, STRESS PERIOD      5
 UBDSV06 SAVING          STORAGE IN MODEL GWF_1            PACKAGE UZF-1           CONNECTED TO MODEL GWF_1            PACKAGE UZF-1            ON UNIT   1014 AT TIME STEP     28, STRESS PERIOD      5

 CHD PACKAGE (CHD-1) FLOW RATES   PERIOD      5   STEP       28
 -----------------------------------------------
   NUMBER   CELLID                    RATE      
 -----------------------------------------------
     1      (3,1,1)              -32.898067     
     2      (3,1,10)             -32.898067     
 -----------------------------------------------




 UZF-GWRCH PACKAGE (UZF-1) FLOW RATES   PERIOD      5   STEP       28
 ----------------------------------------------------------------------------------------
   NUMBER   CELLID                    RATE       NAME                                    
 ----------------------------------------------------------------------------------------
     1      (1,1,2)               0.0000000      UZF01                                   
     2      (1,1,3)               0.0000000      UZF02                                   
     3      (1,1,4)               0.0000000      UZF03                                   
     4      (1,1,5)               0.0000000      UZF04                                   
     5      (1,1,6)               0.0000000      UZF05                                   
     6      (1,1,7)               0.0000000      UZF06                                   
     7      (1,1,8)               0.0000000      UZF07                                   
     8      (1,1,9)               0.0000000      UZF08                                   
     9      (2,1,2)               0.0000000      UZF08                                   
     10     (2,1,3)               0.0000000      UZF10                                   
     11     (2,1,4)               0.0000000      UZF11                                   
     12     (2,1,5)               0.0000000      UZF12                                   
     13     (2,1,6)               0.0000000      UZF13                                   
     14     (2,1,7)               0.0000000      UZF14                                   
     15     (2,1,8)               0.0000000      UZF15                                   
     16     (2,1,9)               0.0000000      UZF16                                   
     17     (3,1,2)               15.771651      UZF17                                   
     18     (3,1,3)               16.301111      UZF18                                   
     19     (3,1,4)               16.677656      UZF19                                   
     20     (3,1,5)               16.871989      UZF20                                   
     21     (3,1,6)               16.871989      UZF21                                   
     22     (3,1,7)               16.677656      UZF22                                   
     23     (3,1,8)               16.301111      UZF23                                   
     24     (3,1,9)               15.771651      UZF24                                   
 ----------------------------------------------------------------------------------------




 UZF-GWD PACKAGE (UZF-1) FLOW RATES   PERIOD      5   STEP       28
 ----------------------------------------------------------------------------------------
   NUMBER   CELLID                    RATE       NAME                                    
 ----------------------------------------------------------------------------------------
     1      (1,1,2)               0.0000000      UZF01                                   
     2      (1,1,3)               0.0000000      UZF02                                   
     3      (1,1,4)               0.0000000      UZF03                                   
     4      (1,1,5)               0.0000000      UZF04                                   
     5      (1,1,6)               0.0000000      UZF05                                   
     6      (1,1,7)               0.0000000      UZF06                                   
     7      (1,1,8)               0.0000000      UZF07                                   
     8      (1,1,9)               0.0000000      UZF08                                   
     9      (2,1,2)               0.0000000      UZF08                                   
     10     (2,1,3)               0.0000000      UZF10                                   
     11     (2,1,4)               0.0000000      UZF11                                   
     12     (2,1,5)               0.0000000      UZF12                                   
     13     (2,1,6)               0.0000000      UZF13                                   
     14     (2,1,7)               0.0000000      UZF14                                   
     15     (2,1,8)               0.0000000      UZF15                                   
     16     (2,1,9)               0.0000000      UZF16                                   
     17     (3,1,2)               0.0000000      UZF17                                   
     18     (3,1,3)               0.0000000      UZF18                                   
     19     (3,1,4)               0.0000000      UZF19                                   
     20     (3,1,5)               0.0000000      UZF20                                   
     21     (3,1,6)               0.0000000      UZF21                                   
     22     (3,1,7)               0.0000000      UZF22                                   
     23     (3,1,8)               0.0000000      UZF23                                   
     24     (3,1,9)               0.0000000      UZF24                                   
 ----------------------------------------------------------------------------------------




 UZF-GWET PACKAGE (UZF-1) FLOW RATES   PERIOD      5   STEP       28
 ----------------------------------------------------------------------------------------
   NUMBER   CELLID                    RATE       NAME                                    
 ----------------------------------------------------------------------------------------
     1      (1,1,2)               0.0000000      UZF01                                   
     2      (1,1,3)               0.0000000      UZF02                                   
     3      (1,1,4)               0.0000000      UZF03                                   
     4      (1,1,5)               0.0000000      UZF04                                   
     5      (1,1,6)               0.0000000      UZF05                                   
     6      (1,1,7)               0.0000000      UZF06                                   
     7      (1,1,8)               0.0000000      UZF07                                   
     8      (1,1,9)               0.0000000      UZF08                                   
     9      (2,1,2)               0.0000000      UZF08                                   
     10     (2,1,3)               0.0000000      UZF10                                   
     11     (2,1,4)               0.0000000      UZF11                                   
     12     (2,1,5)               0.0000000      UZF12                                   
     13     (2,1,6)               0.0000000      UZF13                                   
     14     (2,1,7)               0.0000000      UZF14                                   
     15     (2,1,8)               0.0000000      UZF15                                   
     16     (2,1,9)               0.0000000      UZF16                                   
     17     (3,1,2)               0.0000000      UZF17                                   
     18     (3,1,3)               0.0000000      UZF18                                   
     19     (3,1,4)               0.0000000      UZF19                                   
     20     (3,1,5)               0.0000000      UZF20                                   
     21     (3,1,6)               0.0000000      UZF21                                   
     22     (3,1,7)               0.0000000      UZF22                                   
     23     (3,1,8)               0.0000000      UZF23                                   
     24     (3,1,9)               0.0000000      UZF24                                   
 ----------------------------------------------------------------------------------------




 UZF-1 PACKAGE - SUMMARY OF FLOWS FOR EACH CONTROL VOLUME   PERIOD      5   STEP       28
 ----------------------------------------------------------------------------------------------------------------------------------------------------
                                                                                                                                           PERCENT   
   NUMBER   CELLID                  INFLOW      OUTFLOW        GWF      INFILTRATION   REJ INF        UZET       STORAGE      IN - OUT    DIFFERENCE 
 ----------------------------------------------------------------------------------------------------------------------------------------------------
     1      (1,1,2)               0.0000      -1.1760       0.0000       0.0000       0.0000       0.0000       1.1760       2.33147E-14  1.98249E-12
     2      (1,1,3)               0.0000      -1.1760       0.0000       0.0000       0.0000       0.0000       1.1760       2.33147E-14  1.98249E-12
     3      (1,1,4)               0.0000      -1.1760       0.0000       0.0000       0.0000       0.0000       1.1760       2.33147E-14  1.98249E-12
     4      (1,1,5)               0.0000      -1.1760       0.0000       0.0000       0.0000       0.0000       1.1760       2.33147E-14  1.98249E-12
     5      (1,1,6)               0.0000      -1.1760       0.0000       0.0000       0.0000       0.0000       1.1760       2.33147E-14  1.98249E-12
     6      (1,1,7)               0.0000      -1.1760       0.0000       0.0000       0.0000       0.0000       1.1760       2.33147E-14  1.98249E-12
     7      (1,1,8)               0.0000      -1.1760       0.0000       0.0000       0.0000       0.0000       1.1760       2.33147E-14  1.98249E-12
     8      (1,1,9)               0.0000      -1.1760       0.0000       0.0000       0.0000       0.0000       1.1760       2.33147E-14  1.98249E-12
     9      (2,1,2)               1.1760      -9.9491       0.0000       0.0000       0.0000      -4.11149E-02  8.8145       3.04425E-04  3.04719E-03
     10     (2,1,3)               1.1760      -9.9491       0.0000       0.0000       0.0000      -4.11149E-02  8.8145       3.04425E-04  3.04719E-03
     11     (2,1,4)               1.1760      -9.9491       0.0000       0.0000       0.0000      -4.11149E-02  8.8145       3.04425E-04  3.04719E-03
     12     (2,1,5)               1.1760      -9.9491       0.0000       0.0000       0.0000      -4.11149E-02  8.8145       3.04425E-04  3.04719E-03
     13     (2,1,6)               1.1760      -9.9491       0.0000       0.0000       0.0000      -4.11149E-02  8.8145       3.04425E-04  3.04719E-03
     14     (2,1,7)               1.1760      -9.9491       0.0000       0.0000       0.0000      -4.11149E-02  8.8145       3.04425E-04  3.04719E-03
     15     (2,1,8)               1.1760      -9.9491       0.0000       0.0000       0.0000      -4.11149E-02  8.8145       3.04425E-04  3.04719E-03
     16     (2,1,9)               1.1760      -9.9491       0.0000       0.0000       0.0000      -4.11149E-02  8.8145       3.04425E-04  3.04719E-03
     17     (3,1,2)               9.9491       0.0000      -15.772       0.0000       0.0000       0.0000       5.8226       1.33655E-06  8.47440E-06
     18     (3,1,3)               9.9491       0.0000      -16.301       0.0000       0.0000       0.0000       6.3520       1.33655E-06  8.19915E-06
     19     (3,1,4)               9.9491       0.0000      -16.678       0.0000       0.0000       0.0000       6.7286       1.33655E-06  8.01403E-06
     20     (3,1,5)               9.9491       0.0000      -16.872       0.0000       0.0000       0.0000       6.9229       1.33655E-06  7.92173E-06
     21     (3,1,6)               9.9491       0.0000      -16.872       0.0000       0.0000       0.0000       6.9229       1.33655E-06  7.92173E-06
     22     (3,1,7)               9.9491       0.0000      -16.678       0.0000       0.0000       0.0000       6.7286       1.33655E-06  8.01403E-06
     23     (3,1,8)               9.9491       0.0000      -16.301       0.0000       0.0000       0.0000       6.3520       1.33655E-06  8.19915E-06
     24     (3,1,9)               9.9491       0.0000      -15.772       0.0000       0.0000       0.0000       5.8226       1.33655E-06  8.47440E-06
 ----------------------------------------------------------------------------------------------------------------------------------------------------


1
  HEAD IN LAYER   1 AT END OF TIME STEP  28 IN STRESS PERIOD    5
  ---------------------------------------------------------------------------

            1           2           3           4           5           6           7           8           9          10
 ........................................................................................................................
   1   -25.00      -24.94      -24.89      -24.87      -24.86      -24.86      -24.87      -24.89      -24.94      -25.00    
1
  HEAD IN LAYER   2 AT END OF TIME STEP  28 IN STRESS PERIOD    5
  ---------------------------------------------------------------------------

            1           2           3           4           5           6           7           8           9          10
 ........................................................................................................................
   1   -25.00      -24.94      -24.89      -24.87      -24.86      -24.86      -24.87      -24.89      -24.94      -25.00    
1
  HEAD IN LAYER   3 AT END OF TIME STEP  28 IN STRESS PERIOD    5
  ---------------------------------------------------------------------------

            1           2           3           4           5           6           7           8           9          10
 ........................................................................................................................
   1   -25.00      -24.94      -24.89      -24.87      -24.86      -24.86      -24.87      -24.89      -24.94      -25.00    

 HEAD WILL BE SAVED ON UNIT 1022 AT END OF TIME STEP   28, STRESS PERIOD    5


  UZF-1 BUDGET FOR ENTIRE MODEL AT END OF TIME STEP   28, STRESS PERIOD   5
  ------------------------------------------------------------------------------

     CUMULATIVE UZF-1      L**3       RATES FOR THIS TIME STEP      L**3/T
     ------------------                 ------------------------

           IN:                                      IN:
           ---                                      ---
                 GWF =           0.0000                   GWF =           0.0000
        INFILTRATION =      480000.0000          INFILTRATION =           0.0000
             REJ-INF =           0.0000               REJ-INF =           0.0000
                UZET =           0.0000                  UZET =           0.0000
             STORAGE =      442494.9520               STORAGE =         131.5762

            TOTAL IN =      922494.9520              TOTAL IN =         131.5762

          OUT:                                     OUT:
          ----                                     ----
                 GWF =       26764.6881                   GWF =         131.2448
        INFILTRATION =           0.0000          INFILTRATION =           0.0000
             REJ-INF =           0.0000               REJ-INF =           0.0000
                UZET =         792.9148                  UZET =           0.3289
             STORAGE =      894878.6925               STORAGE =           0.0000

           TOTAL OUT =      922436.2954             TOTAL OUT =         131.5737

            IN - OUT =          58.6566              IN - OUT =       2.4461E-03

 PERCENT DISCREPANCY =           0.01     PERCENT DISCREPANCY =           0.00



  VOLUME BUDGET FOR ENTIRE MODEL AT END OF TIME STEP   28, STRESS PERIOD   5
  ---------------------------------------------------------------------------------------------------

     CUMULATIVE VOLUME      L**3       RATES FOR THIS TIME STEP      L**3/T          PACKAGE NAME    
     ------------------                 ------------------------                     ----------------

           IN:                                      IN:
           ---                                      ---
              STO-SS =           0.0000                STO-SS =           0.0000     STORAGE         
              STO-SY =           0.0000                STO-SY =           0.0000     STORAGE         
                 CHD =           0.0000                   CHD =           0.0000     CHD-1           
           UZF-GWRCH =       26764.6881             UZF-GWRCH =         131.2448     UZF-1           
             UZF-GWD =           0.0000               UZF-GWD =           0.0000     UZF-1           
            UZF-GWET =           0.0000              UZF-GWET =           0.0000     UZF-1           

            TOTAL IN =       26764.6881              TOTAL IN =         131.2448

          OUT:                                     OUT:
          ----                                     ----
              STO-SS =           4.4907                STO-SS =       1.6723E-02     STORAGE         
              STO-SY =       17751.8385                STO-SY =          65.4319     STORAGE         
                 CHD =        9008.3332                   CHD =          65.7961     CHD-1           
           UZF-GWRCH =           0.0000             UZF-GWRCH =           0.0000     UZF-1           
             UZF-GWD =           0.0000               UZF-GWD =           0.0000     UZF-1           
            UZF-GWET =           0.0000              UZF-GWET =           0.0000     UZF-1           

           TOTAL OUT =       26764.6624             TOTAL OUT =         131.2447

            IN - OUT =       2.5689E-02              IN - OUT =       8.8203E-05

 PERCENT DISCREPANCY =           0.00     PERCENT DISCREPANCY =           0.00




         TIME SUMMARY AT END OF TIME STEP   28 IN STRESS PERIOD    5
                    SECONDS     MINUTES      HOURS       DAYS        YEARS
                    -----------------------------------------------------------
   TIME STEP LENGTH 3.45600E+06  57600.      960.00      40.000     0.10951    
 STRESS PERIOD TIME 9.67680E+07 1.61280E+06  26880.      1120.0      3.0664    
         TOTAL TIME 1.45152E+08 2.41920E+06  40320.      1680.0      4.5996    


end timestep


start timestep kper="5" kstp="29" mode="normal"

 UBDSV1 SAVING     FLOW-JA-FACE ON UNIT   1020 AT TIME STEP     29, STRESS PERIOD      5
 UBDSV06 SAVING     FLOW-JA-FACE IN MODEL GWF_1            PACKAGE UZF-1           CONNECTED TO MODEL GWF_1            PACKAGE UZF-1            ON UNIT   1014 AT TIME STEP     29, STRESS PERIOD      5
 UBDSV06 SAVING              GWF IN MODEL GWF_1            PACKAGE UZF-1           CONNECTED TO MODEL GWF_1            PACKAGE GWF_1            ON UNIT   1014 AT TIME STEP     29, STRESS PERIOD      5
 UBDSV06 SAVING     INFILTRATION IN MODEL GWF_1            PACKAGE UZF-1           CONNECTED TO MODEL GWF_1            PACKAGE UZF-1            ON UNIT   1014 AT TIME STEP     29, STRESS PERIOD      5
 UBDSV06 SAVING          REJ-INF IN MODEL GWF_1            PACKAGE UZF-1           CONNECTED TO MODEL GWF_1            PACKAGE UZF-1            ON UNIT   1014 AT TIME STEP     29, STRESS PERIOD      5
 UBDSV06 SAVING             UZET IN MODEL GWF_1            PACKAGE UZF-1           CONNECTED TO MODEL GWF_1            PACKAGE UZF-1            ON UNIT   1014 AT TIME STEP     29, STRESS PERIOD      5
 UBDSV06 SAVING          STORAGE IN MODEL GWF_1            PACKAGE UZF-1           CONNECTED TO MODEL GWF_1            PACKAGE UZF-1            ON UNIT   1014 AT TIME STEP     29, STRESS PERIOD      5

 CHD PACKAGE (CHD-1) FLOW RATES   PERIOD      5   STEP       29
 -----------------------------------------------
   NUMBER   CELLID                    RATE      
 -----------------------------------------------
     1      (3,1,1)              -35.962947     
     2      (3,1,10)             -35.962947     
 -----------------------------------------------




 UZF-GWRCH PACKAGE (UZF-1) FLOW RATES   PERIOD      5   STEP       29
 ----------------------------------------------------------------------------------------
   NUMBER   CELLID                    RATE       NAME                                    
 ----------------------------------------------------------------------------------------
     1      (1,1,2)               0.0000000      UZF01                                   
     2      (1,1,3)               0.0000000      UZF02                                   
     3      (1,1,4)               0.0000000      UZF03                                   
     4      (1,1,5)               0.0000000      UZF04                                   
     5      (1,1,6)               0.0000000      UZF05                                   
     6      (1,1,7)               0.0000000      UZF06                                   
     7      (1,1,8)               0.0000000      UZF07                                   
     8      (1,1,9)               0.0000000      UZF08                                   
     9      (2,1,2)               0.0000000      UZF08                                   
     10     (2,1,3)               0.0000000      UZF10                                   
     11     (2,1,4)               0.0000000      UZF11                                   
     12     (2,1,5)               0.0000000      UZF12                                   
     13     (2,1,6)               0.0000000      UZF13                                   
     14     (2,1,7)               0.0000000      UZF14                                   
     15     (2,1,8)               0.0000000      UZF15                                   
     16     (2,1,9)               0.0000000      UZF16                                   
     17     (3,1,2)               14.837838      UZF17                                   
     18     (3,1,3)               15.291563      UZF18                                   
     19     (3,1,4)               15.630189      UZF19                                   
     20     (3,1,5)               15.807580      UZF20                                   
     21     (3,1,6)               15.807580      UZF21                                   
     22     (3,1,7)               15.630189      UZF22                                   
     23     (3,1,8)               15.291563      UZF23                                   
     24     (3,1,9)               14.837838      UZF24                                   
 ----------------------------------------------------------------------------------------




 UZF-GWD PACKAGE (UZF-1) FLOW RATES   PERIOD      5   STEP       29
 ----------------------------------------------------------------------------------------
   NUMBER   CELLID                    RATE       NAME                                    
 ----------------------------------------------------------------------------------------
     1      (1,1,2)               0.0000000      UZF01                                   
     2      (1,1,3)               0.0000000      UZF02                                   
     3      (1,1,4)               0.0000000      UZF03                                   
     4      (1,1,5)               0.0000000      UZF04                                   
     5      (1,1,6)               0.0000000      UZF05                                   
     6      (1,1,7)               0.0000000      UZF06                                   
     7      (1,1,8)               0.0000000      UZF07                                   
     8      (1,1,9)               0.0000000      UZF08                                   
     9      (2,1,2)               0.0000000      UZF08                                   
     10     (2,1,3)               0.0000000      UZF10                                   
     11     (2,1,4)               0.0000000      UZF11                                   
     12     (2,1,5)               0.0000000      UZF12                                   
     13     (2,1,6)               0.0000000      UZF13                                   
     14     (2,1,7)               0.0000000      UZF14                                   
     15     (2,1,8)               0.0000000      UZF15                                   
     16     (2,1,9)               0.0000000      UZF16                                   
     17     (3,1,2)               0.0000000      UZF17                                   
     18     (3,1,3)               0.0000000      UZF18                                   
     19     (3,1,4)               0.0000000      UZF19                                   
     20     (3,1,5)               0.0000000      UZF20                                   
     21     (3,1,6)               0.0000000      UZF21                                   
     22     (3,1,7)               0.0000000      UZF22                                   
     23     (3,1,8)               0.0000000      UZF23                                   
     24     (3,1,9)               0.0000000      UZF24                                   
 ----------------------------------------------------------------------------------------




 UZF-GWET PACKAGE (UZF-1) FLOW RATES   PERIOD      5   STEP       29
 ----------------------------------------------------------------------------------------
   NUMBER   CELLID                    RATE       NAME                                    
 ----------------------------------------------------------------------------------------
     1      (1,1,2)               0.0000000      UZF01                                   
     2      (1,1,3)               0.0000000      UZF02                                   
     3      (1,1,4)               0.0000000      UZF03                                   
     4      (1,1,5)               0.0000000      UZF04                                   
     5      (1,1,6)               0.0000000      UZF05                                   
     6      (1,1,7)               0.0000000      UZF06                                   
     7      (1,1,8)               0.0000000      UZF07                                   
     8      (1,1,9)               0.0000000      UZF08                                   
     9      (2,1,2)               0.0000000      UZF08                                   
     10     (2,1,3)               0.0000000      UZF10                                   
     11     (2,1,4)               0.0000000      UZF11                                   
     12     (2,1,5)               0.0000000      UZF12                                   
     13     (2,1,6)               0.0000000      UZF13                                   
     14     (2,1,7)               0.0000000      UZF14                                   
     15     (2,1,8)               0.0000000      UZF15                                   
     16     (2,1,9)               0.0000000      UZF16                                   
     17     (3,1,2)               0.0000000      UZF17                                   
     18     (3,1,3)               0.0000000      UZF18                                   
     19     (3,1,4)               0.0000000      UZF19                                   
     20     (3,1,5)               0.0000000      UZF20                                   
     21     (3,1,6)               0.0000000      UZF21                                   
     22     (3,1,7)               0.0000000      UZF22                                   
     23     (3,1,8)               0.0000000      UZF23                                   
     24     (3,1,9)               0.0000000      UZF24                                   
 ----------------------------------------------------------------------------------------




 UZF-1 PACKAGE - SUMMARY OF FLOWS FOR EACH CONTROL VOLUME   PERIOD      5   STEP       29
 ----------------------------------------------------------------------------------------------------------------------------------------------------
                                                                                                                                           PERCENT   
   NUMBER   CELLID                  INFLOW      OUTFLOW        GWF      INFILTRATION   REJ INF        UZET       STORAGE      IN - OUT    DIFFERENCE 
 ----------------------------------------------------------------------------------------------------------------------------------------------------
     1      (1,1,2)               0.0000      -1.1760       0.0000       0.0000       0.0000       0.0000       1.1760       2.33147E-14  1.98249E-12
     2      (1,1,3)               0.0000      -1.1760       0.0000       0.0000       0.0000       0.0000       1.1760       2.33147E-14  1.98249E-12
     3      (1,1,4)               0.0000      -1.1760       0.0000       0.0000       0.0000       0.0000       1.1760       2.33147E-14  1.98249E-12
     4      (1,1,5)               0.0000      -1.1760       0.0000       0.0000       0.0000       0.0000       1.1760       2.33147E-14  1.98249E-12
     5      (1,1,6)               0.0000      -1.1760       0.0000       0.0000       0.0000       0.0000       1.1760       2.33147E-14  1.98249E-12
     6      (1,1,7)               0.0000      -1.1760       0.0000       0.0000       0.0000       0.0000       1.1760       2.33147E-14  1.98249E-12
     7      (1,1,8)               0.0000      -1.1760       0.0000       0.0000       0.0000       0.0000       1.1760       2.33147E-14  1.98249E-12
     8      (1,1,9)               0.0000      -1.1760       0.0000       0.0000       0.0000       0.0000       1.1760       2.33147E-14  1.98249E-12
     9      (2,1,2)               1.1760      -9.9456       0.0000       0.0000       0.0000      -4.00451E-02  8.8099       3.10341E-04  3.10783E-03
     10     (2,1,3)               1.1760      -9.9456       0.0000       0.0000       0.0000      -4.00451E-02  8.8099       3.10341E-04  3.10783E-03
     11     (2,1,4)               1.1760      -9.9456       0.0000       0.0000       0.0000      -4.00451E-02  8.8099       3.10341E-04  3.10783E-03
     12     (2,1,5)               1.1760      -9.9456       0.0000       0.0000       0.0000      -4.00451E-02  8.8099       3.10341E-04  3.10783E-03
     13     (2,1,6)               1.1760      -9.9456       0.0000       0.0000       0.0000      -4.00451E-02  8.8099       3.10341E-04  3.10783E-03
     14     (2,1,7)               1.1760      -9.9456       0.0000       0.0000       0.0000      -4.00451E-02  8.8099       3.10341E-04  3.10783E-03
     15     (2,1,8)               1.1760      -9.9456       0.0000       0.0000       0.0000      -4.00451E-02  8.8099       3.10341E-04  3.10783E-03
     16     (2,1,9)               1.1760      -9.9456       0.0000       0.0000       0.0000      -4.00451E-02  8.8099       3.10341E-04  3.10783E-03
     17     (3,1,2)               9.9456       0.0000      -14.838       0.0000       0.0000       0.0000       4.8923       1.32792E-06  8.94954E-06
     18     (3,1,3)               9.9456       0.0000      -15.292       0.0000       0.0000       0.0000       5.3460       1.32792E-06  8.68399E-06
     19     (3,1,4)               9.9456       0.0000      -15.630       0.0000       0.0000       0.0000       5.6846       1.32792E-06  8.49586E-06
     20     (3,1,5)               9.9456       0.0000      -15.808       0.0000       0.0000       0.0000       5.8620       1.32792E-06  8.40052E-06
     21     (3,1,6)               9.9456       0.0000      -15.808       0.0000       0.0000       0.0000       5.8620       1.32792E-06  8.40052E-06
     22     (3,1,7)               9.9456       0.0000      -15.630       0.0000       0.0000       0.0000       5.6846       1.32792E-06  8.49586E-06
     23     (3,1,8)               9.9456       0.0000      -15.292       0.0000       0.0000       0.0000       5.3460       1.32792E-06  8.68399E-06
     24     (3,1,9)               9.9456       0.0000      -14.838       0.0000       0.0000       0.0000       4.8923       1.32792E-06  8.94954E-06
 ----------------------------------------------------------------------------------------------------------------------------------------------------


1
  HEAD IN LAYER   1 AT END OF TIME STEP  29 IN STRESS PERIOD    5
  ---------------------------------------------------------------------------

            1           2           3           4           5           6           7           8           9          10
 ........................................................................................................................
   1   -25.00      -24.93      -24.88      -24.85      -24.84      -24.84      -24.85      -24.88      -24.93      -25.00    
1
  HEAD IN LAYER   2 AT END OF TIME STEP  29 IN STRESS PERIOD    5
  ---------------------------------------------------------------------------

            1           2           3           4           5           6           7           8           9          10
 ........................................................................................................................
   1   -25.00      -24.93      -24.88      -24.85      -24.84      -24.84      -24.85      -24.88      -24.93      -25.00    
1
  HEAD IN LAYER   3 AT END OF TIME STEP  29 IN STRESS PERIOD    5
  ---------------------------------------------------------------------------

            1           2           3           4           5           6           7           8           9          10
 ........................................................................................................................
   1   -25.00      -24.93      -24.88      -24.85      -24.84      -24.84      -24.85      -24.88      -24.93      -25.00    

 HEAD WILL BE SAVED ON UNIT 1022 AT END OF TIME STEP   29, STRESS PERIOD    5


  UZF-1 BUDGET FOR ENTIRE MODEL AT END OF TIME STEP   29, STRESS PERIOD   5
  ------------------------------------------------------------------------------

     CUMULATIVE UZF-1      L**3       RATES FOR THIS TIME STEP      L**3/T
     ------------------                 ------------------------

           IN:                                      IN:
           ---                                      ---
                 GWF =           0.0000                   GWF =           0.0000
        INFILTRATION =      480000.0000          INFILTRATION =           0.0000
             REJ-INF =           0.0000               REJ-INF =           0.0000
                UZET =           0.0000                  UZET =           0.0000
             STORAGE =      447433.2398               STORAGE =         123.4572

            TOTAL IN =      927433.2398              TOTAL IN =         123.4572

          OUT:                                     OUT:
          ----                                     ----
                 GWF =       31690.0617                   GWF =         123.1343
        INFILTRATION =           0.0000          INFILTRATION =           0.0000
             REJ-INF =           0.0000               REJ-INF =           0.0000
                UZET =         805.7292                  UZET =           0.3204
             STORAGE =      894878.6925               STORAGE =           0.0000

           TOTAL OUT =      927374.4834             TOTAL OUT =         123.4547

            IN - OUT =          58.7563              IN - OUT =       2.4934E-03

 PERCENT DISCREPANCY =           0.01     PERCENT DISCREPANCY =           0.00



  VOLUME BUDGET FOR ENTIRE MODEL AT END OF TIME STEP   29, STRESS PERIOD   5
  ---------------------------------------------------------------------------------------------------

     CUMULATIVE VOLUME      L**3       RATES FOR THIS TIME STEP      L**3/T          PACKAGE NAME    
     ------------------                 ------------------------                     ----------------

           IN:                                      IN:
           ---                                      ---
              STO-SS =           0.0000                STO-SS =           0.0000     STORAGE         
              STO-SY =           0.0000                STO-SY =           0.0000     STORAGE         
                 CHD =           0.0000                   CHD =           0.0000     CHD-1           
           UZF-GWRCH =       31690.0617             UZF-GWRCH =         123.1343     UZF-1           
             UZF-GWD =           0.0000               UZF-GWD =           0.0000     UZF-1           
            UZF-GWET =           0.0000              UZF-GWET =           0.0000     UZF-1           

            TOTAL IN =       31690.0617              TOTAL IN =         123.1343

          OUT:                                     OUT:
          ----                                     ----
              STO-SS =           5.0158                STO-SS =       1.3128E-02     STORAGE         
              STO-SY =       19799.6324                STO-SY =          51.1948     STORAGE         
                 CHD =       11885.3690                   CHD =          71.9259     CHD-1           
           UZF-GWRCH =           0.0000             UZF-GWRCH =           0.0000     UZF-1           
             UZF-GWD =           0.0000               UZF-GWD =           0.0000     UZF-1           
            UZF-GWET =           0.0000              UZF-GWET =           0.0000     UZF-1           

           TOTAL OUT =       31690.0173             TOTAL OUT =         123.1339

            IN - OUT =       4.4438E-02              IN - OUT =       4.6872E-04

 PERCENT DISCREPANCY =           0.00     PERCENT DISCREPANCY =           0.00




         TIME SUMMARY AT END OF TIME STEP   29 IN STRESS PERIOD    5
                    SECONDS     MINUTES      HOURS       DAYS        YEARS
                    -----------------------------------------------------------
   TIME STEP LENGTH 3.45600E+06  57600.      960.00      40.000     0.10951    
 STRESS PERIOD TIME 1.00224E+08 1.67040E+06  27840.      1160.0      3.1759    
         TOTAL TIME 1.48608E+08 2.47680E+06  41280.      1720.0      4.7091    


end timestep


start timestep kper="5" kstp="30" mode="normal"

 UBDSV1 SAVING     FLOW-JA-FACE ON UNIT   1020 AT TIME STEP     30, STRESS PERIOD      5
 UBDSV06 SAVING     FLOW-JA-FACE IN MODEL GWF_1            PACKAGE UZF-1           CONNECTED TO MODEL GWF_1            PACKAGE UZF-1            ON UNIT   1014 AT TIME STEP     30, STRESS PERIOD      5
 UBDSV06 SAVING              GWF IN MODEL GWF_1            PACKAGE UZF-1           CONNECTED TO MODEL GWF_1            PACKAGE GWF_1            ON UNIT   1014 AT TIME STEP     30, STRESS PERIOD      5
 UBDSV06 SAVING     INFILTRATION IN MODEL GWF_1            PACKAGE UZF-1           CONNECTED TO MODEL GWF_1            PACKAGE UZF-1            ON UNIT   1014 AT TIME STEP     30, STRESS PERIOD      5
 UBDSV06 SAVING          REJ-INF IN MODEL GWF_1            PACKAGE UZF-1           CONNECTED TO MODEL GWF_1            PACKAGE UZF-1            ON UNIT   1014 AT TIME STEP     30, STRESS PERIOD      5
 UBDSV06 SAVING             UZET IN MODEL GWF_1            PACKAGE UZF-1           CONNECTED TO MODEL GWF_1            PACKAGE UZF-1            ON UNIT   1014 AT TIME STEP     30, STRESS PERIOD      5
 UBDSV06 SAVING          STORAGE IN MODEL GWF_1            PACKAGE UZF-1           CONNECTED TO MODEL GWF_1            PACKAGE UZF-1            ON UNIT   1014 AT TIME STEP     30, STRESS PERIOD      5

 CHD PACKAGE (CHD-1) FLOW RATES   PERIOD      5   STEP       30
 -----------------------------------------------
   NUMBER   CELLID                    RATE      
 -----------------------------------------------
     1      (3,1,1)              -38.117481     
     2      (3,1,10)             -38.117481     
 -----------------------------------------------




 UZF-GWRCH PACKAGE (UZF-1) FLOW RATES   PERIOD      5   STEP       30
 ----------------------------------------------------------------------------------------
   NUMBER   CELLID                    RATE       NAME                                    
 ----------------------------------------------------------------------------------------
     1      (1,1,2)               0.0000000      UZF01                                   
     2      (1,1,3)               0.0000000      UZF02                                   
     3      (1,1,4)               0.0000000      UZF03                                   
     4      (1,1,5)               0.0000000      UZF04                                   
     5      (1,1,6)               0.0000000      UZF05                                   
     6      (1,1,7)               0.0000000      UZF06                                   
     7      (1,1,8)               0.0000000      UZF07                                   
     8      (1,1,9)               0.0000000      UZF08                                   
     9      (2,1,2)               0.0000000      UZF08                                   
     10     (2,1,3)               0.0000000      UZF10                                   
     11     (2,1,4)               0.0000000      UZF11                                   
     12     (2,1,5)               0.0000000      UZF12                                   
     13     (2,1,6)               0.0000000      UZF13                                   
     14     (2,1,7)               0.0000000      UZF14                                   
     15     (2,1,8)               0.0000000      UZF15                                   
     16     (2,1,9)               0.0000000      UZF16                                   
     17     (3,1,2)               13.904718      UZF17                                   
     18     (3,1,3)               14.172314      UZF18                                   
     19     (3,1,4)               14.398619      UZF19                                   
     20     (3,1,5)               14.526115      UZF20                                   
     21     (3,1,6)               14.526115      UZF21                                   
     22     (3,1,7)               14.398619      UZF22                                   
     23     (3,1,8)               14.172314      UZF23                                   
     24     (3,1,9)               13.904718      UZF24                                   
 ----------------------------------------------------------------------------------------




 UZF-GWD PACKAGE (UZF-1) FLOW RATES   PERIOD      5   STEP       30
 ----------------------------------------------------------------------------------------
   NUMBER   CELLID                    RATE       NAME                                    
 ----------------------------------------------------------------------------------------
     1      (1,1,2)               0.0000000      UZF01                                   
     2      (1,1,3)               0.0000000      UZF02                                   
     3      (1,1,4)               0.0000000      UZF03                                   
     4      (1,1,5)               0.0000000      UZF04                                   
     5      (1,1,6)               0.0000000      UZF05                                   
     6      (1,1,7)               0.0000000      UZF06                                   
     7      (1,1,8)               0.0000000      UZF07                                   
     8      (1,1,9)               0.0000000      UZF08                                   
     9      (2,1,2)               0.0000000      UZF08                                   
     10     (2,1,3)               0.0000000      UZF10                                   
     11     (2,1,4)               0.0000000      UZF11                                   
     12     (2,1,5)               0.0000000      UZF12                                   
     13     (2,1,6)               0.0000000      UZF13                                   
     14     (2,1,7)               0.0000000      UZF14                                   
     15     (2,1,8)               0.0000000      UZF15                                   
     16     (2,1,9)               0.0000000      UZF16                                   
     17     (3,1,2)               0.0000000      UZF17                                   
     18     (3,1,3)               0.0000000      UZF18                                   
     19     (3,1,4)               0.0000000      UZF19                                   
     20     (3,1,5)               0.0000000      UZF20                                   
     21     (3,1,6)               0.0000000      UZF21                                   
     22     (3,1,7)               0.0000000      UZF22                                   
     23     (3,1,8)               0.0000000      UZF23                                   
     24     (3,1,9)               0.0000000      UZF24                                   
 ----------------------------------------------------------------------------------------




 UZF-GWET PACKAGE (UZF-1) FLOW RATES   PERIOD      5   STEP       30
 ----------------------------------------------------------------------------------------
   NUMBER   CELLID                    RATE       NAME                                    
 ----------------------------------------------------------------------------------------
     1      (1,1,2)               0.0000000      UZF01                                   
     2      (1,1,3)               0.0000000      UZF02                                   
     3      (1,1,4)               0.0000000      UZF03                                   
     4      (1,1,5)               0.0000000      UZF04                                   
     5      (1,1,6)               0.0000000      UZF05                                   
     6      (1,1,7)               0.0000000      UZF06                                   
     7      (1,1,8)               0.0000000      UZF07                                   
     8      (1,1,9)               0.0000000      UZF08                                   
     9      (2,1,2)               0.0000000      UZF08                                   
     10     (2,1,3)               0.0000000      UZF10                                   
     11     (2,1,4)               0.0000000      UZF11                                   
     12     (2,1,5)               0.0000000      UZF12                                   
     13     (2,1,6)               0.0000000      UZF13                                   
     14     (2,1,7)               0.0000000      UZF14                                   
     15     (2,1,8)               0.0000000      UZF15                                   
     16     (2,1,9)               0.0000000      UZF16                                   
     17     (3,1,2)               0.0000000      UZF17                                   
     18     (3,1,3)               0.0000000      UZF18                                   
     19     (3,1,4)               0.0000000      UZF19                                   
     20     (3,1,5)               0.0000000      UZF20                                   
     21     (3,1,6)               0.0000000      UZF21                                   
     22     (3,1,7)               0.0000000      UZF22                                   
     23     (3,1,8)               0.0000000      UZF23                                   
     24     (3,1,9)               0.0000000      UZF24                                   
 ----------------------------------------------------------------------------------------




 UZF-1 PACKAGE - SUMMARY OF FLOWS FOR EACH CONTROL VOLUME   PERIOD      5   STEP       30
 ----------------------------------------------------------------------------------------------------------------------------------------------------
                                                                                                                                           PERCENT   
   NUMBER   CELLID                  INFLOW      OUTFLOW        GWF      INFILTRATION   REJ INF        UZET       STORAGE      IN - OUT    DIFFERENCE 
 ----------------------------------------------------------------------------------------------------------------------------------------------------
     1      (1,1,2)               0.0000      -1.1760       0.0000       0.0000       0.0000       0.0000       1.1760       2.33147E-14  1.98249E-12
     2      (1,1,3)               0.0000      -1.1760       0.0000       0.0000       0.0000       0.0000       1.1760       2.33147E-14  1.98249E-12
     3      (1,1,4)               0.0000      -1.1760       0.0000       0.0000       0.0000       0.0000       1.1760       2.33147E-14  1.98249E-12
     4      (1,1,5)               0.0000      -1.1760       0.0000       0.0000       0.0000       0.0000       1.1760       2.33147E-14  1.98249E-12
     5      (1,1,6)               0.0000      -1.1760       0.0000       0.0000       0.0000       0.0000       1.1760       2.33147E-14  1.98249E-12
     6      (1,1,7)               0.0000      -1.1760       0.0000       0.0000       0.0000       0.0000       1.1760       2.33147E-14  1.98249E-12
     7      (1,1,8)               0.0000      -1.1760       0.0000       0.0000       0.0000       0.0000       1.1760       2.33147E-14  1.98249E-12
     8      (1,1,9)               0.0000      -1.1760       0.0000       0.0000       0.0000       0.0000       1.1760       2.33147E-14  1.98249E-12
     9      (2,1,2)               1.1760      -9.9420       0.0000       0.0000       0.0000      -3.89752E-02  8.8053       3.15830E-04  3.16426E-03
     10     (2,1,3)               1.1760      -9.9420       0.0000       0.0000       0.0000      -3.89752E-02  8.8053       3.15830E-04  3.16426E-03
     11     (2,1,4)               1.1760      -9.9420       0.0000       0.0000       0.0000      -3.89752E-02  8.8053       3.15830E-04  3.16426E-03
     12     (2,1,5)               1.1760      -9.9420       0.0000       0.0000       0.0000      -3.89752E-02  8.8053       3.15830E-04  3.16426E-03
     13     (2,1,6)               1.1760      -9.9420       0.0000       0.0000       0.0000      -3.89752E-02  8.8053       3.15830E-04  3.16426E-03
     14     (2,1,7)               1.1760      -9.9420       0.0000       0.0000       0.0000      -3.89752E-02  8.8053       3.15830E-04  3.16426E-03
     15     (2,1,8)               1.1760      -9.9420       0.0000       0.0000       0.0000      -3.89752E-02  8.8053       3.15830E-04  3.16426E-03
     16     (2,1,9)               1.1760      -9.9420       0.0000       0.0000       0.0000      -3.89752E-02  8.8053       3.15830E-04  3.16426E-03
     17     (3,1,2)               9.9420       0.0000      -13.905       0.0000       0.0000       0.0000       3.9627       1.32756E-06  9.54758E-06
     18     (3,1,3)               9.9420       0.0000      -14.172       0.0000       0.0000       0.0000       4.2303       1.32756E-06  9.36731E-06
     19     (3,1,4)               9.9420       0.0000      -14.399       0.0000       0.0000       0.0000       4.4566       1.32756E-06  9.22008E-06
     20     (3,1,5)               9.9420       0.0000      -14.526       0.0000       0.0000       0.0000       4.5841       1.32756E-06  9.13916E-06
     21     (3,1,6)               9.9420       0.0000      -14.526       0.0000       0.0000       0.0000       4.5841       1.32756E-06  9.13916E-06
     22     (3,1,7)               9.9420       0.0000      -14.399       0.0000       0.0000       0.0000       4.4566       1.32756E-06  9.22008E-06
     23     (3,1,8)               9.9420       0.0000      -14.172       0.0000       0.0000       0.0000       4.2303       1.32756E-06  9.36731E-06
     24     (3,1,9)               9.9420       0.0000      -13.905       0.0000       0.0000       0.0000       3.9627       1.32756E-06  9.54758E-06
 ----------------------------------------------------------------------------------------------------------------------------------------------------


1
  HEAD IN LAYER   1 AT END OF TIME STEP  30 IN STRESS PERIOD    5
  ---------------------------------------------------------------------------

            1           2           3           4           5           6           7           8           9          10
 ........................................................................................................................
   1   -25.00      -24.92      -24.87      -24.84      -24.83      -24.83      -24.84      -24.87      -24.92      -25.00    
1
  HEAD IN LAYER   2 AT END OF TIME STEP  30 IN STRESS PERIOD    5
  ---------------------------------------------------------------------------

            1           2           3           4           5           6           7           8           9          10
 ........................................................................................................................
   1   -25.00      -24.92      -24.87      -24.84      -24.83      -24.83      -24.84      -24.87      -24.92      -25.00    
1
  HEAD IN LAYER   3 AT END OF TIME STEP  30 IN STRESS PERIOD    5
  ---------------------------------------------------------------------------

            1           2           3           4           5           6           7           8           9          10
 ........................................................................................................................
   1   -25.00      -24.92      -24.87      -24.84      -24.83      -24.83      -24.84      -24.87      -24.92      -25.00    

 HEAD WILL BE SAVED ON UNIT 1022 AT END OF TIME STEP   30, STRESS PERIOD    5


  UZF-1 BUDGET FOR ENTIRE MODEL AT END OF TIME STEP   30, STRESS PERIOD   5
  ------------------------------------------------------------------------------

     CUMULATIVE UZF-1      L**3       RATES FOR THIS TIME STEP      L**3/T
     ------------------                 ------------------------

           IN:                                      IN:
           ---                                      ---
                 GWF =           0.0000                   GWF =           0.0000
        INFILTRATION =      480000.0000          INFILTRATION =           0.0000
             REJ-INF =           0.0000               REJ-INF =           0.0000
                UZET =           0.0000                  UZET =           0.0000
             STORAGE =      452005.9547               STORAGE =         114.3179

            TOTAL IN =      932005.9547              TOTAL IN =         114.3179

          OUT:                                     OUT:
          ----                                     ----
                 GWF =       36250.2031                   GWF =         114.0035
        INFILTRATION =           0.0000          INFILTRATION =           0.0000
             REJ-INF =           0.0000               REJ-INF =           0.0000
                UZET =         818.2013                  UZET =           0.3118
             STORAGE =      894878.6925               STORAGE =           0.0000

           TOTAL OUT =      931947.0969             TOTAL OUT =         114.3153

            IN - OUT =          58.8578              IN - OUT =       2.5373E-03

 PERCENT DISCREPANCY =           0.01     PERCENT DISCREPANCY =           0.00



  VOLUME BUDGET FOR ENTIRE MODEL AT END OF TIME STEP   30, STRESS PERIOD   5
  ---------------------------------------------------------------------------------------------------

     CUMULATIVE VOLUME      L**3       RATES FOR THIS TIME STEP      L**3/T          PACKAGE NAME    
     ------------------                 ------------------------                     ----------------

           IN:                                      IN:
           ---                                      ---
              STO-SS =           0.0000                STO-SS =           0.0000     STORAGE         
              STO-SY =           0.0000                STO-SY =           0.0000     STORAGE         
                 CHD =           0.0000                   CHD =           0.0000     CHD-1           
           UZF-GWRCH =       36250.2031             UZF-GWRCH =         114.0035     UZF-1           
             UZF-GWD =           0.0000               UZF-GWD =           0.0000     UZF-1           
            UZF-GWET =           0.0000              UZF-GWET =           0.0000     UZF-1           

            TOTAL IN =       36250.2031              TOTAL IN =         114.0035

          OUT:                                     OUT:
          ----                                     ----
              STO-SS =           5.4041                STO-SS =       9.7074E-03     STORAGE         
              STO-SY =       21309.9744                STO-SY =          37.7585     STORAGE         
                 CHD =       14934.7675                   CHD =          76.2350     CHD-1           
           UZF-GWRCH =           0.0000             UZF-GWRCH =           0.0000     UZF-1           
             UZF-GWD =           0.0000               UZF-GWD =           0.0000     UZF-1           
            UZF-GWET =           0.0000              UZF-GWET =           0.0000     UZF-1           

           TOTAL OUT =       36250.1460             TOTAL OUT =         114.0032

            IN - OUT =       5.7057E-02              IN - OUT =       3.1547E-04

 PERCENT DISCREPANCY =           0.00     PERCENT DISCREPANCY =           0.00




         TIME SUMMARY AT END OF TIME STEP   30 IN STRESS PERIOD    5
                    SECONDS     MINUTES      HOURS       DAYS        YEARS
                    -----------------------------------------------------------
   TIME STEP LENGTH 3.45600E+06  57600.      960.00      40.000     0.10951    
 STRESS PERIOD TIME 1.03680E+08 1.72800E+06  28800.      1200.0      3.2854    
         TOTAL TIME 1.52064E+08 2.53440E+06  42240.      1760.0      4.8186    


end timestep


start timestep kper="5" kstp="31" mode="normal"

 UBDSV1 SAVING     FLOW-JA-FACE ON UNIT   1020 AT TIME STEP     31, STRESS PERIOD      5
 UBDSV06 SAVING     FLOW-JA-FACE IN MODEL GWF_1            PACKAGE UZF-1           CONNECTED TO MODEL GWF_1            PACKAGE UZF-1            ON UNIT   1014 AT TIME STEP     31, STRESS PERIOD      5
 UBDSV06 SAVING              GWF IN MODEL GWF_1            PACKAGE UZF-1           CONNECTED TO MODEL GWF_1            PACKAGE GWF_1            ON UNIT   1014 AT TIME STEP     31, STRESS PERIOD      5
 UBDSV06 SAVING     INFILTRATION IN MODEL GWF_1            PACKAGE UZF-1           CONNECTED TO MODEL GWF_1            PACKAGE UZF-1            ON UNIT   1014 AT TIME STEP     31, STRESS PERIOD      5
 UBDSV06 SAVING          REJ-INF IN MODEL GWF_1            PACKAGE UZF-1           CONNECTED TO MODEL GWF_1            PACKAGE UZF-1            ON UNIT   1014 AT TIME STEP     31, STRESS PERIOD      5
 UBDSV06 SAVING             UZET IN MODEL GWF_1            PACKAGE UZF-1           CONNECTED TO MODEL GWF_1            PACKAGE UZF-1            ON UNIT   1014 AT TIME STEP     31, STRESS PERIOD      5
 UBDSV06 SAVING          STORAGE IN MODEL GWF_1            PACKAGE UZF-1           CONNECTED TO MODEL GWF_1            PACKAGE UZF-1            ON UNIT   1014 AT TIME STEP     31, STRESS PERIOD      5

 CHD PACKAGE (CHD-1) FLOW RATES   PERIOD      5   STEP       31
 -----------------------------------------------
   NUMBER   CELLID                    RATE      
 -----------------------------------------------
     1      (3,1,1)              -39.846786     
     2      (3,1,10)             -39.846786     
 -----------------------------------------------




 UZF-GWRCH PACKAGE (UZF-1) FLOW RATES   PERIOD      5   STEP       31
 ----------------------------------------------------------------------------------------
   NUMBER   CELLID                    RATE       NAME                                    
 ----------------------------------------------------------------------------------------
     1      (1,1,2)               0.0000000      UZF01                                   
     2      (1,1,3)               0.0000000      UZF02                                   
     3      (1,1,4)               0.0000000      UZF03                                   
     4      (1,1,5)               0.0000000      UZF04                                   
     5      (1,1,6)               0.0000000      UZF05                                   
     6      (1,1,7)               0.0000000      UZF06                                   
     7      (1,1,8)               0.0000000      UZF07                                   
     8      (1,1,9)               0.0000000      UZF08                                   
     9      (2,1,2)               0.0000000      UZF08                                   
     10     (2,1,3)               0.0000000      UZF10                                   
     11     (2,1,4)               0.0000000      UZF11                                   
     12     (2,1,5)               0.0000000      UZF12                                   
     13     (2,1,6)               0.0000000      UZF13                                   
     14     (2,1,7)               0.0000000      UZF14                                   
     15     (2,1,8)               0.0000000      UZF15                                   
     16     (2,1,9)               0.0000000      UZF16                                   
     17     (3,1,2)               13.447217      UZF17                                   
     18     (3,1,3)               13.697756      UZF18                                   
     19     (3,1,4)               13.900197      UZF19                                   
     20     (3,1,5)               14.012266      UZF20                                   
     21     (3,1,6)               14.012266      UZF21                                   
     22     (3,1,7)               13.900197      UZF22                                   
     23     (3,1,8)               13.697756      UZF23                                   
     24     (3,1,9)               13.447217      UZF24                                   
 ----------------------------------------------------------------------------------------




 UZF-GWD PACKAGE (UZF-1) FLOW RATES   PERIOD      5   STEP       31
 ----------------------------------------------------------------------------------------
   NUMBER   CELLID                    RATE       NAME                                    
 ----------------------------------------------------------------------------------------
     1      (1,1,2)               0.0000000      UZF01                                   
     2      (1,1,3)               0.0000000      UZF02                                   
     3      (1,1,4)               0.0000000      UZF03                                   
     4      (1,1,5)               0.0000000      UZF04                                   
     5      (1,1,6)               0.0000000      UZF05                                   
     6      (1,1,7)               0.0000000      UZF06                                   
     7      (1,1,8)               0.0000000      UZF07                                   
     8      (1,1,9)               0.0000000      UZF08                                   
     9      (2,1,2)               0.0000000      UZF08                                   
     10     (2,1,3)               0.0000000      UZF10                                   
     11     (2,1,4)               0.0000000      UZF11                                   
     12     (2,1,5)               0.0000000      UZF12                                   
     13     (2,1,6)               0.0000000      UZF13                                   
     14     (2,1,7)               0.0000000      UZF14                                   
     15     (2,1,8)               0.0000000      UZF15                                   
     16     (2,1,9)               0.0000000      UZF16                                   
     17     (3,1,2)               0.0000000      UZF17                                   
     18     (3,1,3)               0.0000000      UZF18                                   
     19     (3,1,4)               0.0000000      UZF19                                   
     20     (3,1,5)               0.0000000      UZF20                                   
     21     (3,1,6)               0.0000000      UZF21                                   
     22     (3,1,7)               0.0000000      UZF22                                   
     23     (3,1,8)               0.0000000      UZF23                                   
     24     (3,1,9)               0.0000000      UZF24                                   
 ----------------------------------------------------------------------------------------




 UZF-GWET PACKAGE (UZF-1) FLOW RATES   PERIOD      5   STEP       31
 ----------------------------------------------------------------------------------------
   NUMBER   CELLID                    RATE       NAME                                    
 ----------------------------------------------------------------------------------------
     1      (1,1,2)               0.0000000      UZF01                                   
     2      (1,1,3)               0.0000000      UZF02                                   
     3      (1,1,4)               0.0000000      UZF03                                   
     4      (1,1,5)               0.0000000      UZF04                                   
     5      (1,1,6)               0.0000000      UZF05                                   
     6      (1,1,7)               0.0000000      UZF06                                   
     7      (1,1,8)               0.0000000      UZF07                                   
     8      (1,1,9)               0.0000000      UZF08                                   
     9      (2,1,2)               0.0000000      UZF08                                   
     10     (2,1,3)               0.0000000      UZF10                                   
     11     (2,1,4)               0.0000000      UZF11                                   
     12     (2,1,5)               0.0000000      UZF12                                   
     13     (2,1,6)               0.0000000      UZF13                                   
     14     (2,1,7)               0.0000000      UZF14                                   
     15     (2,1,8)               0.0000000      UZF15                                   
     16     (2,1,9)               0.0000000      UZF16                                   
     17     (3,1,2)               0.0000000      UZF17                                   
     18     (3,1,3)               0.0000000      UZF18                                   
     19     (3,1,4)               0.0000000      UZF19                                   
     20     (3,1,5)               0.0000000      UZF20                                   
     21     (3,1,6)               0.0000000      UZF21                                   
     22     (3,1,7)               0.0000000      UZF22                                   
     23     (3,1,8)               0.0000000      UZF23                                   
     24     (3,1,9)               0.0000000      UZF24                                   
 ----------------------------------------------------------------------------------------




 UZF-1 PACKAGE - SUMMARY OF FLOWS FOR EACH CONTROL VOLUME   PERIOD      5   STEP       31
 ----------------------------------------------------------------------------------------------------------------------------------------------------
                                                                                                                                           PERCENT   
   NUMBER   CELLID                  INFLOW      OUTFLOW        GWF      INFILTRATION   REJ INF        UZET       STORAGE      IN - OUT    DIFFERENCE 
 ----------------------------------------------------------------------------------------------------------------------------------------------------
     1      (1,1,2)               0.0000      -1.1760       0.0000       0.0000       0.0000       0.0000       1.1760       2.33147E-14  1.98249E-12
     2      (1,1,3)               0.0000      -1.1760       0.0000       0.0000       0.0000       0.0000       1.1760       2.33147E-14  1.98249E-12
     3      (1,1,4)               0.0000      -1.1760       0.0000       0.0000       0.0000       0.0000       1.1760       2.33147E-14  1.98249E-12
     4      (1,1,5)               0.0000      -1.1760       0.0000       0.0000       0.0000       0.0000       1.1760       2.33147E-14  1.98249E-12
     5      (1,1,6)               0.0000      -1.1760       0.0000       0.0000       0.0000       0.0000       1.1760       2.33147E-14  1.98249E-12
     6      (1,1,7)               0.0000      -1.1760       0.0000       0.0000       0.0000       0.0000       1.1760       2.33147E-14  1.98249E-12
     7      (1,1,8)               0.0000      -1.1760       0.0000       0.0000       0.0000       0.0000       1.1760       2.33147E-14  1.98249E-12
     8      (1,1,9)               0.0000      -1.1760       0.0000       0.0000       0.0000       0.0000       1.1760       2.33147E-14  1.98249E-12
     9      (2,1,2)               1.1760      -8.6912       0.0000       0.0000       0.0000      -3.79054E-02  7.5534       3.20892E-04  3.67605E-03
     10     (2,1,3)               1.1760      -8.6912       0.0000       0.0000       0.0000      -3.79054E-02  7.5534       3.20892E-04  3.67605E-03
     11     (2,1,4)               1.1760      -8.6912       0.0000       0.0000       0.0000      -3.79054E-02  7.5534       3.20892E-04  3.67605E-03
     12     (2,1,5)               1.1760      -8.6912       0.0000       0.0000       0.0000      -3.79054E-02  7.5534       3.20892E-04  3.67605E-03
     13     (2,1,6)               1.1760      -8.6912       0.0000       0.0000       0.0000      -3.79054E-02  7.5534       3.20892E-04  3.67605E-03
     14     (2,1,7)               1.1760      -8.6912       0.0000       0.0000       0.0000      -3.79054E-02  7.5534       3.20892E-04  3.67605E-03
     15     (2,1,8)               1.1760      -8.6912       0.0000       0.0000       0.0000      -3.79054E-02  7.5534       3.20892E-04  3.67605E-03
     16     (2,1,9)               1.1760      -8.6912       0.0000       0.0000       0.0000      -3.79054E-02  7.5534       3.20892E-04  3.67605E-03
     17     (3,1,2)               8.6912       0.0000      -13.447       0.0000       0.0000       0.0000       4.7560       1.21229E-06  9.01516E-06
     18     (3,1,3)               8.6912       0.0000      -13.698       0.0000       0.0000       0.0000       5.0066       1.21229E-06  8.85027E-06
     19     (3,1,4)               8.6912       0.0000      -13.900       0.0000       0.0000       0.0000       5.2090       1.21229E-06  8.72137E-06
     20     (3,1,5)               8.6912       0.0000      -14.012       0.0000       0.0000       0.0000       5.3211       1.21229E-06  8.65162E-06
     21     (3,1,6)               8.6912       0.0000      -14.012       0.0000       0.0000       0.0000       5.3211       1.21229E-06  8.65162E-06
     22     (3,1,7)               8.6912       0.0000      -13.900       0.0000       0.0000       0.0000       5.2090       1.21229E-06  8.72137E-06
     23     (3,1,8)               8.6912       0.0000      -13.698       0.0000       0.0000       0.0000       5.0066       1.21229E-06  8.85027E-06
     24     (3,1,9)               8.6912       0.0000      -13.447       0.0000       0.0000       0.0000       4.7560       1.21229E-06  9.01516E-06
 ----------------------------------------------------------------------------------------------------------------------------------------------------


1
  HEAD IN LAYER   1 AT END OF TIME STEP  31 IN STRESS PERIOD    5
  ---------------------------------------------------------------------------

            1           2           3           4           5           6           7           8           9          10
 ........................................................................................................................
   1   -25.00      -24.92      -24.87      -24.83      -24.82      -24.82      -24.83      -24.87      -24.92      -25.00    
1
  HEAD IN LAYER   2 AT END OF TIME STEP  31 IN STRESS PERIOD    5
  ---------------------------------------------------------------------------

            1           2           3           4           5           6           7           8           9          10
 ........................................................................................................................
   1   -25.00      -24.92      -24.87      -24.83      -24.82      -24.82      -24.83      -24.87      -24.92      -25.00    
1
  HEAD IN LAYER   3 AT END OF TIME STEP  31 IN STRESS PERIOD    5
  ---------------------------------------------------------------------------

            1           2           3           4           5           6           7           8           9          10
 ........................................................................................................................
   1   -25.00      -24.92      -24.87      -24.83      -24.82      -24.82      -24.83      -24.87      -24.92      -25.00    

 HEAD WILL BE SAVED ON UNIT 1022 AT END OF TIME STEP   31, STRESS PERIOD    5


  UZF-1 BUDGET FOR ENTIRE MODEL AT END OF TIME STEP   31, STRESS PERIOD   5
  ------------------------------------------------------------------------------

     CUMULATIVE UZF-1      L**3       RATES FOR THIS TIME STEP      L**3/T
     ------------------                 ------------------------

           IN:                                      IN:
           ---                                      ---
                 GWF =           0.0000                   GWF =           0.0000
        INFILTRATION =      480000.0000          INFILTRATION =           0.0000
             REJ-INF =           0.0000               REJ-INF =           0.0000
                UZET =           0.0000                  UZET =           0.0000
             STORAGE =      456422.7825               STORAGE =         110.4207

            TOTAL IN =      936422.7825              TOTAL IN =         110.4207

          OUT:                                     OUT:
          ----                                     ----
                 GWF =       40654.7980                   GWF =         110.1149
        INFILTRATION =           0.0000          INFILTRATION =           0.0000
             REJ-INF =           0.0000               REJ-INF =           0.0000
                UZET =         830.3311                  UZET =           0.3032
             STORAGE =      894878.6925               STORAGE =           0.0000

           TOTAL OUT =      936363.8216             TOTAL OUT =         110.4181

            IN - OUT =          58.9609              IN - OUT =       2.5768E-03

 PERCENT DISCREPANCY =           0.01     PERCENT DISCREPANCY =           0.00



  VOLUME BUDGET FOR ENTIRE MODEL AT END OF TIME STEP   31, STRESS PERIOD   5
  ---------------------------------------------------------------------------------------------------

     CUMULATIVE VOLUME      L**3       RATES FOR THIS TIME STEP      L**3/T          PACKAGE NAME    
     ------------------                 ------------------------                     ----------------

           IN:                                      IN:
           ---                                      ---
              STO-SS =           0.0000                STO-SS =           0.0000     STORAGE         
              STO-SY =           0.0000                STO-SY =           0.0000     STORAGE         
                 CHD =           0.0000                   CHD =           0.0000     CHD-1           
           UZF-GWRCH =       40654.7980             UZF-GWRCH =         110.1149     UZF-1           
             UZF-GWD =           0.0000               UZF-GWD =           0.0000     UZF-1           
            UZF-GWET =           0.0000              UZF-GWET =           0.0000     UZF-1           

            TOTAL IN =       40654.7980              TOTAL IN =         110.1149

          OUT:                                     OUT:
          ----                                     ----
              STO-SS =           5.7174                STO-SS =       7.8339E-03     STORAGE         
              STO-SY =       22526.5032                STO-SY =          30.4132     STORAGE         
                 CHD =       18122.5104                   CHD =          79.6936     CHD-1           
           UZF-GWRCH =           0.0000             UZF-GWRCH =           0.0000     UZF-1           
             UZF-GWD =           0.0000               UZF-GWD =           0.0000     UZF-1           
            UZF-GWET =           0.0000              UZF-GWET =           0.0000     UZF-1           

           TOTAL OUT =       40654.7311             TOTAL OUT =         110.1146

            IN - OUT =       6.6926E-02              IN - OUT =       2.4673E-04

 PERCENT DISCREPANCY =           0.00     PERCENT DISCREPANCY =           0.00




         TIME SUMMARY AT END OF TIME STEP   31 IN STRESS PERIOD    5
                    SECONDS     MINUTES      HOURS       DAYS        YEARS
                    -----------------------------------------------------------
   TIME STEP LENGTH 3.45600E+06  57600.      960.00      40.000     0.10951    
 STRESS PERIOD TIME 1.07136E+08 1.78560E+06  29760.      1240.0      3.3949    
         TOTAL TIME 1.55520E+08 2.59200E+06  43200.      1800.0      4.9281    


end timestep


start timestep kper="5" kstp="32" mode="normal"

 UBDSV1 SAVING     FLOW-JA-FACE ON UNIT   1020 AT TIME STEP     32, STRESS PERIOD      5
 UBDSV06 SAVING     FLOW-JA-FACE IN MODEL GWF_1            PACKAGE UZF-1           CONNECTED TO MODEL GWF_1            PACKAGE UZF-1            ON UNIT   1014 AT TIME STEP     32, STRESS PERIOD      5
 UBDSV06 SAVING              GWF IN MODEL GWF_1            PACKAGE UZF-1           CONNECTED TO MODEL GWF_1            PACKAGE GWF_1            ON UNIT   1014 AT TIME STEP     32, STRESS PERIOD      5
 UBDSV06 SAVING     INFILTRATION IN MODEL GWF_1            PACKAGE UZF-1           CONNECTED TO MODEL GWF_1            PACKAGE UZF-1            ON UNIT   1014 AT TIME STEP     32, STRESS PERIOD      5
 UBDSV06 SAVING          REJ-INF IN MODEL GWF_1            PACKAGE UZF-1           CONNECTED TO MODEL GWF_1            PACKAGE UZF-1            ON UNIT   1014 AT TIME STEP     32, STRESS PERIOD      5
 UBDSV06 SAVING             UZET IN MODEL GWF_1            PACKAGE UZF-1           CONNECTED TO MODEL GWF_1            PACKAGE UZF-1            ON UNIT   1014 AT TIME STEP     32, STRESS PERIOD      5
 UBDSV06 SAVING          STORAGE IN MODEL GWF_1            PACKAGE UZF-1           CONNECTED TO MODEL GWF_1            PACKAGE UZF-1            ON UNIT   1014 AT TIME STEP     32, STRESS PERIOD      5

 CHD PACKAGE (CHD-1) FLOW RATES   PERIOD      5   STEP       32
 -----------------------------------------------
   NUMBER   CELLID                    RATE      
 -----------------------------------------------
     1      (3,1,1)              -41.167283     
     2      (3,1,10)             -41.167283     
 -----------------------------------------------




 UZF-GWRCH PACKAGE (UZF-1) FLOW RATES   PERIOD      5   STEP       32
 ----------------------------------------------------------------------------------------
   NUMBER   CELLID                    RATE       NAME                                    
 ----------------------------------------------------------------------------------------
     1      (1,1,2)               0.0000000      UZF01                                   
     2      (1,1,3)               0.0000000      UZF02                                   
     3      (1,1,4)               0.0000000      UZF03                                   
     4      (1,1,5)               0.0000000      UZF04                                   
     5      (1,1,6)               0.0000000      UZF05                                   
     6      (1,1,7)               0.0000000      UZF06                                   
     7      (1,1,8)               0.0000000      UZF07                                   
     8      (1,1,9)               0.0000000      UZF08                                   
     9      (2,1,2)               0.0000000      UZF08                                   
     10     (2,1,3)               0.0000000      UZF10                                   
     11     (2,1,4)               0.0000000      UZF11                                   
     12     (2,1,5)               0.0000000      UZF12                                   
     13     (2,1,6)               0.0000000      UZF13                                   
     14     (2,1,7)               0.0000000      UZF14                                   
     15     (2,1,8)               0.0000000      UZF15                                   
     16     (2,1,9)               0.0000000      UZF16                                   
     17     (3,1,2)               13.032937      UZF17                                   
     18     (3,1,3)               13.141720      UZF18                                   
     19     (3,1,4)               13.237736      UZF19                                   
     20     (3,1,5)               13.290622      UZF20                                   
     21     (3,1,6)               13.290622      UZF21                                   
     22     (3,1,7)               13.237736      UZF22                                   
     23     (3,1,8)               13.141720      UZF23                                   
     24     (3,1,9)               13.032937      UZF24                                   
 ----------------------------------------------------------------------------------------




 UZF-GWD PACKAGE (UZF-1) FLOW RATES   PERIOD      5   STEP       32
 ----------------------------------------------------------------------------------------
   NUMBER   CELLID                    RATE       NAME                                    
 ----------------------------------------------------------------------------------------
     1      (1,1,2)               0.0000000      UZF01                                   
     2      (1,1,3)               0.0000000      UZF02                                   
     3      (1,1,4)               0.0000000      UZF03                                   
     4      (1,1,5)               0.0000000      UZF04                                   
     5      (1,1,6)               0.0000000      UZF05                                   
     6      (1,1,7)               0.0000000      UZF06                                   
     7      (1,1,8)               0.0000000      UZF07                                   
     8      (1,1,9)               0.0000000      UZF08                                   
     9      (2,1,2)               0.0000000      UZF08                                   
     10     (2,1,3)               0.0000000      UZF10                                   
     11     (2,1,4)               0.0000000      UZF11                                   
     12     (2,1,5)               0.0000000      UZF12                                   
     13     (2,1,6)               0.0000000      UZF13                                   
     14     (2,1,7)               0.0000000      UZF14                                   
     15     (2,1,8)               0.0000000      UZF15                                   
     16     (2,1,9)               0.0000000      UZF16                                   
     17     (3,1,2)               0.0000000      UZF17                                   
     18     (3,1,3)               0.0000000      UZF18                                   
     19     (3,1,4)               0.0000000      UZF19                                   
     20     (3,1,5)               0.0000000      UZF20                                   
     21     (3,1,6)               0.0000000      UZF21                                   
     22     (3,1,7)               0.0000000      UZF22                                   
     23     (3,1,8)               0.0000000      UZF23                                   
     24     (3,1,9)               0.0000000      UZF24                                   
 ----------------------------------------------------------------------------------------




 UZF-GWET PACKAGE (UZF-1) FLOW RATES   PERIOD      5   STEP       32
 ----------------------------------------------------------------------------------------
   NUMBER   CELLID                    RATE       NAME                                    
 ----------------------------------------------------------------------------------------
     1      (1,1,2)               0.0000000      UZF01                                   
     2      (1,1,3)               0.0000000      UZF02                                   
     3      (1,1,4)               0.0000000      UZF03                                   
     4      (1,1,5)               0.0000000      UZF04                                   
     5      (1,1,6)               0.0000000      UZF05                                   
     6      (1,1,7)               0.0000000      UZF06                                   
     7      (1,1,8)               0.0000000      UZF07                                   
     8      (1,1,9)               0.0000000      UZF08                                   
     9      (2,1,2)               0.0000000      UZF08                                   
     10     (2,1,3)               0.0000000      UZF10                                   
     11     (2,1,4)               0.0000000      UZF11                                   
     12     (2,1,5)               0.0000000      UZF12                                   
     13     (2,1,6)               0.0000000      UZF13                                   
     14     (2,1,7)               0.0000000      UZF14                                   
     15     (2,1,8)               0.0000000      UZF15                                   
     16     (2,1,9)               0.0000000      UZF16                                   
     17     (3,1,2)               0.0000000      UZF17                                   
     18     (3,1,3)               0.0000000      UZF18                                   
     19     (3,1,4)               0.0000000      UZF19                                   
     20     (3,1,5)               0.0000000      UZF20                                   
     21     (3,1,6)               0.0000000      UZF21                                   
     22     (3,1,7)               0.0000000      UZF22                                   
     23     (3,1,8)               0.0000000      UZF23                                   
     24     (3,1,9)               0.0000000      UZF24                                   
 ----------------------------------------------------------------------------------------




 UZF-1 PACKAGE - SUMMARY OF FLOWS FOR EACH CONTROL VOLUME   PERIOD      5   STEP       32
 ----------------------------------------------------------------------------------------------------------------------------------------------------
                                                                                                                                           PERCENT   
   NUMBER   CELLID                  INFLOW      OUTFLOW        GWF      INFILTRATION   REJ INF        UZET       STORAGE      IN - OUT    DIFFERENCE 
 ----------------------------------------------------------------------------------------------------------------------------------------------------
     1      (1,1,2)               0.0000      -1.1760       0.0000       0.0000       0.0000       0.0000       1.1760       2.33147E-14  1.98249E-12
     2      (1,1,3)               0.0000      -1.1760       0.0000       0.0000       0.0000       0.0000       1.1760       2.33147E-14  1.98249E-12
     3      (1,1,4)               0.0000      -1.1760       0.0000       0.0000       0.0000       0.0000       1.1760       2.33147E-14  1.98249E-12
     4      (1,1,5)               0.0000      -1.1760       0.0000       0.0000       0.0000       0.0000       1.1760       2.33147E-14  1.98249E-12
     5      (1,1,6)               0.0000      -1.1760       0.0000       0.0000       0.0000       0.0000       1.1760       2.33147E-14  1.98249E-12
     6      (1,1,7)               0.0000      -1.1760       0.0000       0.0000       0.0000       0.0000       1.1760       2.33147E-14  1.98249E-12
     7      (1,1,8)               0.0000      -1.1760       0.0000       0.0000       0.0000       0.0000       1.1760       2.33147E-14  1.98249E-12
     8      (1,1,9)               0.0000      -1.1760       0.0000       0.0000       0.0000       0.0000       1.1760       2.33147E-14  1.98249E-12
     9      (2,1,2)               1.1760      -8.1741       0.0000       0.0000       0.0000      -3.68356E-02  7.0353       3.25527E-04  3.96445E-03
     10     (2,1,3)               1.1760      -8.1741       0.0000       0.0000       0.0000      -3.68356E-02  7.0353       3.25527E-04  3.96445E-03
     11     (2,1,4)               1.1760      -8.1741       0.0000       0.0000       0.0000      -3.68356E-02  7.0353       3.25527E-04  3.96445E-03
     12     (2,1,5)               1.1760      -8.1741       0.0000       0.0000       0.0000      -3.68356E-02  7.0353       3.25527E-04  3.96445E-03
     13     (2,1,6)               1.1760      -8.1741       0.0000       0.0000       0.0000      -3.68356E-02  7.0353       3.25527E-04  3.96445E-03
     14     (2,1,7)               1.1760      -8.1741       0.0000       0.0000       0.0000      -3.68356E-02  7.0353       3.25527E-04  3.96445E-03
     15     (2,1,8)               1.1760      -8.1741       0.0000       0.0000       0.0000      -3.68356E-02  7.0353       3.25527E-04  3.96445E-03
     16     (2,1,9)               1.1760      -8.1741       0.0000       0.0000       0.0000      -3.68356E-02  7.0353       3.25527E-04  3.96445E-03
     17     (3,1,2)               8.1741       0.0000      -13.033       0.0000       0.0000       0.0000       4.8588       1.15161E-06  8.83618E-06
     18     (3,1,3)               8.1741       0.0000      -13.142       0.0000       0.0000       0.0000       4.9676       1.15161E-06  8.76303E-06
     19     (3,1,4)               8.1741       0.0000      -13.238       0.0000       0.0000       0.0000       5.0636       1.15161E-06  8.69947E-06
     20     (3,1,5)               8.1741       0.0000      -13.291       0.0000       0.0000       0.0000       5.1165       1.15161E-06  8.66485E-06
     21     (3,1,6)               8.1741       0.0000      -13.291       0.0000       0.0000       0.0000       5.1165       1.15161E-06  8.66485E-06
     22     (3,1,7)               8.1741       0.0000      -13.238       0.0000       0.0000       0.0000       5.0636       1.15161E-06  8.69947E-06
     23     (3,1,8)               8.1741       0.0000      -13.142       0.0000       0.0000       0.0000       4.9676       1.15161E-06  8.76303E-06
     24     (3,1,9)               8.1741       0.0000      -13.033       0.0000       0.0000       0.0000       4.8588       1.15161E-06  8.83618E-06
 ----------------------------------------------------------------------------------------------------------------------------------------------------


1
  HEAD IN LAYER   1 AT END OF TIME STEP  32 IN STRESS PERIOD    5
  ---------------------------------------------------------------------------

            1           2           3           4           5           6           7           8           9          10
 ........................................................................................................................
   1   -25.00      -24.92      -24.86      -24.83      -24.81      -24.81      -24.83      -24.86      -24.92      -25.00    
1
  HEAD IN LAYER   2 AT END OF TIME STEP  32 IN STRESS PERIOD    5
  ---------------------------------------------------------------------------

            1           2           3           4           5           6           7           8           9          10
 ........................................................................................................................
   1   -25.00      -24.92      -24.86      -24.83      -24.81      -24.81      -24.83      -24.86      -24.92      -25.00    
1
  HEAD IN LAYER   3 AT END OF TIME STEP  32 IN STRESS PERIOD    5
  ---------------------------------------------------------------------------

            1           2           3           4           5           6           7           8           9          10
 ........................................................................................................................
   1   -25.00      -24.92      -24.86      -24.83      -24.81      -24.81      -24.83      -24.86      -24.92      -25.00    

 HEAD WILL BE SAVED ON UNIT 1022 AT END OF TIME STEP   32, STRESS PERIOD    5


  UZF-1 BUDGET FOR ENTIRE MODEL AT END OF TIME STEP   32, STRESS PERIOD   5
  ------------------------------------------------------------------------------

     CUMULATIVE UZF-1      L**3       RATES FOR THIS TIME STEP      L**3/T
     ------------------                 ------------------------

           IN:                                      IN:
           ---                                      ---
                 GWF =           0.0000                   GWF =           0.0000
        INFILTRATION =      480000.0000          INFILTRATION =           0.0000
             REJ-INF =           0.0000               REJ-INF =           0.0000
                UZET =           0.0000                  UZET =           0.0000
             STORAGE =      460650.9156               STORAGE =         105.7033

            TOTAL IN =      940650.9156              TOTAL IN =         105.7033

          OUT:                                     OUT:
          ----                                     ----
                 GWF =       44871.0392                   GWF =         105.4060
        INFILTRATION =           0.0000          INFILTRATION =           0.0000
             REJ-INF =           0.0000               REJ-INF =           0.0000
                UZET =         842.1184                  UZET =           0.2947
             STORAGE =      894878.6925               STORAGE =           0.0000

           TOTAL OUT =      940591.8502             TOTAL OUT =         105.7007

            IN - OUT =          59.0654              IN - OUT =       2.6134E-03

 PERCENT DISCREPANCY =           0.01     PERCENT DISCREPANCY =           0.00



  VOLUME BUDGET FOR ENTIRE MODEL AT END OF TIME STEP   32, STRESS PERIOD   5
  ---------------------------------------------------------------------------------------------------

     CUMULATIVE VOLUME      L**3       RATES FOR THIS TIME STEP      L**3/T          PACKAGE NAME    
     ------------------                 ------------------------                     ----------------

           IN:                                      IN:
           ---                                      ---
              STO-SS =           0.0000                STO-SS =           0.0000     STORAGE         
              STO-SY =           0.0000                STO-SY =           0.0000     STORAGE         
                 CHD =           0.0000                   CHD =           0.0000     CHD-1           
           UZF-GWRCH =       44871.0392             UZF-GWRCH =         105.4060     UZF-1           
             UZF-GWD =           0.0000               UZF-GWD =           0.0000     UZF-1           
            UZF-GWET =           0.0000              UZF-GWET =           0.0000     UZF-1           

            TOTAL IN =       44871.0392              TOTAL IN =         105.4060

          OUT:                                     OUT:
          ----                                     ----
              STO-SS =           5.9554                STO-SS =       5.9500E-03     STORAGE         
              STO-SY =       23449.1173                STO-SY =          23.0654     STORAGE         
                 CHD =       21415.8930                   CHD =          82.3346     CHD-1           
           UZF-GWRCH =           0.0000             UZF-GWRCH =           0.0000     UZF-1           
             UZF-GWD =           0.0000               UZF-GWD =           0.0000     UZF-1           
            UZF-GWET =           0.0000              UZF-GWET =           0.0000     UZF-1           

           TOTAL OUT =       44870.9658             TOTAL OUT =         105.4059

            IN - OUT =       7.3389E-02              IN - OUT =       1.6156E-04

 PERCENT DISCREPANCY =           0.00     PERCENT DISCREPANCY =           0.00




         TIME SUMMARY AT END OF TIME STEP   32 IN STRESS PERIOD    5
                    SECONDS     MINUTES      HOURS       DAYS        YEARS
                    -----------------------------------------------------------
   TIME STEP LENGTH 3.45600E+06  57600.      960.00      40.000     0.10951    
 STRESS PERIOD TIME 1.10592E+08 1.84320E+06  30720.      1280.0      3.5044    
         TOTAL TIME 1.58976E+08 2.64960E+06  44160.      1840.0      5.0376    


end timestep


start timestep kper="5" kstp="33" mode="normal"

 UBDSV1 SAVING     FLOW-JA-FACE ON UNIT   1020 AT TIME STEP     33, STRESS PERIOD      5
 UBDSV06 SAVING     FLOW-JA-FACE IN MODEL GWF_1            PACKAGE UZF-1           CONNECTED TO MODEL GWF_1            PACKAGE UZF-1            ON UNIT   1014 AT TIME STEP     33, STRESS PERIOD      5
 UBDSV06 SAVING              GWF IN MODEL GWF_1            PACKAGE UZF-1           CONNECTED TO MODEL GWF_1            PACKAGE GWF_1            ON UNIT   1014 AT TIME STEP     33, STRESS PERIOD      5
 UBDSV06 SAVING     INFILTRATION IN MODEL GWF_1            PACKAGE UZF-1           CONNECTED TO MODEL GWF_1            PACKAGE UZF-1            ON UNIT   1014 AT TIME STEP     33, STRESS PERIOD      5
 UBDSV06 SAVING          REJ-INF IN MODEL GWF_1            PACKAGE UZF-1           CONNECTED TO MODEL GWF_1            PACKAGE UZF-1            ON UNIT   1014 AT TIME STEP     33, STRESS PERIOD      5
 UBDSV06 SAVING             UZET IN MODEL GWF_1            PACKAGE UZF-1           CONNECTED TO MODEL GWF_1            PACKAGE UZF-1            ON UNIT   1014 AT TIME STEP     33, STRESS PERIOD      5
 UBDSV06 SAVING          STORAGE IN MODEL GWF_1            PACKAGE UZF-1           CONNECTED TO MODEL GWF_1            PACKAGE UZF-1            ON UNIT   1014 AT TIME STEP     33, STRESS PERIOD      5

 CHD PACKAGE (CHD-1) FLOW RATES   PERIOD      5   STEP       33
 -----------------------------------------------
   NUMBER   CELLID                    RATE      
 -----------------------------------------------
     1      (3,1,1)              -41.589850     
     2      (3,1,10)             -41.589850     
 -----------------------------------------------




 UZF-GWRCH PACKAGE (UZF-1) FLOW RATES   PERIOD      5   STEP       33
 ----------------------------------------------------------------------------------------
   NUMBER   CELLID                    RATE       NAME                                    
 ----------------------------------------------------------------------------------------
     1      (1,1,2)               0.0000000      UZF01                                   
     2      (1,1,3)               0.0000000      UZF02                                   
     3      (1,1,4)               0.0000000      UZF03                                   
     4      (1,1,5)               0.0000000      UZF04                                   
     5      (1,1,6)               0.0000000      UZF05                                   
     6      (1,1,7)               0.0000000      UZF06                                   
     7      (1,1,8)               0.0000000      UZF07                                   
     8      (1,1,9)               0.0000000      UZF08                                   
     9      (2,1,2)               0.0000000      UZF08                                   
     10     (2,1,3)               0.0000000      UZF10                                   
     11     (2,1,4)               0.0000000      UZF11                                   
     12     (2,1,5)               0.0000000      UZF12                                   
     13     (2,1,6)               0.0000000      UZF13                                   
     14     (2,1,7)               0.0000000      UZF14                                   
     15     (2,1,8)               0.0000000      UZF15                                   
     16     (2,1,9)               0.0000000      UZF16                                   
     17     (3,1,2)               11.751690      UZF17                                   
     18     (3,1,3)               11.842020      UZF18                                   
     19     (3,1,4)               11.942842      UZF19                                   
     20     (3,1,5)               12.008023      UZF20                                   
     21     (3,1,6)               12.008023      UZF21                                   
     22     (3,1,7)               11.942842      UZF22                                   
     23     (3,1,8)               11.842020      UZF23                                   
     24     (3,1,9)               11.751690      UZF24                                   
 ----------------------------------------------------------------------------------------




 UZF-GWD PACKAGE (UZF-1) FLOW RATES   PERIOD      5   STEP       33
 ----------------------------------------------------------------------------------------
   NUMBER   CELLID                    RATE       NAME                                    
 ----------------------------------------------------------------------------------------
     1      (1,1,2)               0.0000000      UZF01                                   
     2      (1,1,3)               0.0000000      UZF02                                   
     3      (1,1,4)               0.0000000      UZF03                                   
     4      (1,1,5)               0.0000000      UZF04                                   
     5      (1,1,6)               0.0000000      UZF05                                   
     6      (1,1,7)               0.0000000      UZF06                                   
     7      (1,1,8)               0.0000000      UZF07                                   
     8      (1,1,9)               0.0000000      UZF08                                   
     9      (2,1,2)               0.0000000      UZF08                                   
     10     (2,1,3)               0.0000000      UZF10                                   
     11     (2,1,4)               0.0000000      UZF11                                   
     12     (2,1,5)               0.0000000      UZF12                                   
     13     (2,1,6)               0.0000000      UZF13                                   
     14     (2,1,7)               0.0000000      UZF14                                   
     15     (2,1,8)               0.0000000      UZF15                                   
     16     (2,1,9)               0.0000000      UZF16                                   
     17     (3,1,2)               0.0000000      UZF17                                   
     18     (3,1,3)               0.0000000      UZF18                                   
     19     (3,1,4)               0.0000000      UZF19                                   
     20     (3,1,5)               0.0000000      UZF20                                   
     21     (3,1,6)               0.0000000      UZF21                                   
     22     (3,1,7)               0.0000000      UZF22                                   
     23     (3,1,8)               0.0000000      UZF23                                   
     24     (3,1,9)               0.0000000      UZF24                                   
 ----------------------------------------------------------------------------------------




 UZF-GWET PACKAGE (UZF-1) FLOW RATES   PERIOD      5   STEP       33
 ----------------------------------------------------------------------------------------
   NUMBER   CELLID                    RATE       NAME                                    
 ----------------------------------------------------------------------------------------
     1      (1,1,2)               0.0000000      UZF01                                   
     2      (1,1,3)               0.0000000      UZF02                                   
     3      (1,1,4)               0.0000000      UZF03                                   
     4      (1,1,5)               0.0000000      UZF04                                   
     5      (1,1,6)               0.0000000      UZF05                                   
     6      (1,1,7)               0.0000000      UZF06                                   
     7      (1,1,8)               0.0000000      UZF07                                   
     8      (1,1,9)               0.0000000      UZF08                                   
     9      (2,1,2)               0.0000000      UZF08                                   
     10     (2,1,3)               0.0000000      UZF10                                   
     11     (2,1,4)               0.0000000      UZF11                                   
     12     (2,1,5)               0.0000000      UZF12                                   
     13     (2,1,6)               0.0000000      UZF13                                   
     14     (2,1,7)               0.0000000      UZF14                                   
     15     (2,1,8)               0.0000000      UZF15                                   
     16     (2,1,9)               0.0000000      UZF16                                   
     17     (3,1,2)               0.0000000      UZF17                                   
     18     (3,1,3)               0.0000000      UZF18                                   
     19     (3,1,4)               0.0000000      UZF19                                   
     20     (3,1,5)               0.0000000      UZF20                                   
     21     (3,1,6)               0.0000000      UZF21                                   
     22     (3,1,7)               0.0000000      UZF22                                   
     23     (3,1,8)               0.0000000      UZF23                                   
     24     (3,1,9)               0.0000000      UZF24                                   
 ----------------------------------------------------------------------------------------




 UZF-1 PACKAGE - SUMMARY OF FLOWS FOR EACH CONTROL VOLUME   PERIOD      5   STEP       33
 ----------------------------------------------------------------------------------------------------------------------------------------------------
                                                                                                                                           PERCENT   
   NUMBER   CELLID                  INFLOW      OUTFLOW        GWF      INFILTRATION   REJ INF        UZET       STORAGE      IN - OUT    DIFFERENCE 
 ----------------------------------------------------------------------------------------------------------------------------------------------------
     1      (1,1,2)               0.0000      -1.1760       0.0000       0.0000       0.0000       0.0000       1.1760       2.33147E-14  1.98249E-12
     2      (1,1,3)               0.0000      -1.1760       0.0000       0.0000       0.0000       0.0000       1.1760       2.33147E-14  1.98249E-12
     3      (1,1,4)               0.0000      -1.1760       0.0000       0.0000       0.0000       0.0000       1.1760       2.33147E-14  1.98249E-12
     4      (1,1,5)               0.0000      -1.1760       0.0000       0.0000       0.0000       0.0000       1.1760       2.33147E-14  1.98249E-12
     5      (1,1,6)               0.0000      -1.1760       0.0000       0.0000       0.0000       0.0000       1.1760       2.33147E-14  1.98249E-12
     6      (1,1,7)               0.0000      -1.1760       0.0000       0.0000       0.0000       0.0000       1.1760       2.33147E-14  1.98249E-12
     7      (1,1,8)               0.0000      -1.1760       0.0000       0.0000       0.0000       0.0000       1.1760       2.33147E-14  1.98249E-12
     8      (1,1,9)               0.0000      -1.1760       0.0000       0.0000       0.0000       0.0000       1.1760       2.33147E-14  1.98249E-12
     9      (2,1,2)               1.1760      -8.1711       0.0000       0.0000       0.0000      -3.57658E-02  7.0312       3.29734E-04  4.01771E-03
     10     (2,1,3)               1.1760      -8.1711       0.0000       0.0000       0.0000      -3.57658E-02  7.0312       3.29734E-04  4.01771E-03
     11     (2,1,4)               1.1760      -8.1711       0.0000       0.0000       0.0000      -3.57658E-02  7.0312       3.29734E-04  4.01771E-03
     12     (2,1,5)               1.1760      -8.1711       0.0000       0.0000       0.0000      -3.57658E-02  7.0312       3.29734E-04  4.01771E-03
     13     (2,1,6)               1.1760      -8.1711       0.0000       0.0000       0.0000      -3.57658E-02  7.0312       3.29734E-04  4.01771E-03
     14     (2,1,7)               1.1760      -8.1711       0.0000       0.0000       0.0000      -3.57658E-02  7.0312       3.29734E-04  4.01771E-03
     15     (2,1,8)               1.1760      -8.1711       0.0000       0.0000       0.0000      -3.57658E-02  7.0312       3.29734E-04  4.01771E-03
     16     (2,1,9)               1.1760      -8.1711       0.0000       0.0000       0.0000      -3.57658E-02  7.0312       3.29734E-04  4.01771E-03
     17     (3,1,2)               8.1711       0.0000      -11.752       0.0000       0.0000       0.0000       3.5806       1.14594E-06  9.75126E-06
     18     (3,1,3)               8.1711       0.0000      -11.842       0.0000       0.0000       0.0000       3.6709       1.14594E-06  9.67688E-06
     19     (3,1,4)               8.1711       0.0000      -11.943       0.0000       0.0000       0.0000       3.7718       1.14594E-06  9.59519E-06
     20     (3,1,5)               8.1711       0.0000      -12.008       0.0000       0.0000       0.0000       3.8369       1.14594E-06  9.54310E-06
     21     (3,1,6)               8.1711       0.0000      -12.008       0.0000       0.0000       0.0000       3.8369       1.14594E-06  9.54310E-06
     22     (3,1,7)               8.1711       0.0000      -11.943       0.0000       0.0000       0.0000       3.7718       1.14594E-06  9.59519E-06
     23     (3,1,8)               8.1711       0.0000      -11.842       0.0000       0.0000       0.0000       3.6709       1.14594E-06  9.67688E-06
     24     (3,1,9)               8.1711       0.0000      -11.752       0.0000       0.0000       0.0000       3.5806       1.14594E-06  9.75126E-06
 ----------------------------------------------------------------------------------------------------------------------------------------------------


1
  HEAD IN LAYER   1 AT END OF TIME STEP  33 IN STRESS PERIOD    5
  ---------------------------------------------------------------------------

            1           2           3           4           5           6           7           8           9          10
 ........................................................................................................................
   1   -25.00      -24.92      -24.86      -24.82      -24.80      -24.80      -24.82      -24.86      -24.92      -25.00    
1
  HEAD IN LAYER   2 AT END OF TIME STEP  33 IN STRESS PERIOD    5
  ---------------------------------------------------------------------------

            1           2           3           4           5           6           7           8           9          10
 ........................................................................................................................
   1   -25.00      -24.92      -24.86      -24.82      -24.80      -24.80      -24.82      -24.86      -24.92      -25.00    
1
  HEAD IN LAYER   3 AT END OF TIME STEP  33 IN STRESS PERIOD    5
  ---------------------------------------------------------------------------

            1           2           3           4           5           6           7           8           9          10
 ........................................................................................................................
   1   -25.00      -24.92      -24.86      -24.82      -24.80      -24.80      -24.82      -24.86      -24.92      -25.00    

 HEAD WILL BE SAVED ON UNIT 1022 AT END OF TIME STEP   33, STRESS PERIOD    5


  UZF-1 BUDGET FOR ENTIRE MODEL AT END OF TIME STEP   33, STRESS PERIOD   5
  ------------------------------------------------------------------------------

     CUMULATIVE UZF-1      L**3       RATES FOR THIS TIME STEP      L**3/T
     ------------------                 ------------------------

           IN:                                      IN:
           ---                                      ---
                 GWF =           0.0000                   GWF =           0.0000
        INFILTRATION =      480000.0000          INFILTRATION =           0.0000
             REJ-INF =           0.0000               REJ-INF =           0.0000
                UZET =           0.0000                  UZET =           0.0000
             STORAGE =      464466.0325               STORAGE =          95.3779

            TOTAL IN =      944466.0325              TOTAL IN =          95.3779

          OUT:                                     OUT:
          ----                                     ----
                 GWF =       48674.6052                   GWF =          95.0891
        INFILTRATION =           0.0000          INFILTRATION =           0.0000
             REJ-INF =           0.0000               REJ-INF =           0.0000
                UZET =         853.5635                  UZET =           0.2861
             STORAGE =      894878.6925               STORAGE =           0.0000

           TOTAL OUT =      944406.8612             TOTAL OUT =          95.3753

            IN - OUT =          59.1713              IN - OUT =       2.6470E-03

 PERCENT DISCREPANCY =           0.01     PERCENT DISCREPANCY =           0.00



  VOLUME BUDGET FOR ENTIRE MODEL AT END OF TIME STEP   33, STRESS PERIOD   5
  ---------------------------------------------------------------------------------------------------

     CUMULATIVE VOLUME      L**3       RATES FOR THIS TIME STEP      L**3/T          PACKAGE NAME    
     ------------------                 ------------------------                     ----------------

           IN:                                      IN:
           ---                                      ---
              STO-SS =           0.0000                STO-SS =           0.0000     STORAGE         
              STO-SY =           0.0000                STO-SY =           0.0000     STORAGE         
                 CHD =           0.0000                   CHD =           0.0000     CHD-1           
           UZF-GWRCH =       48674.6052             UZF-GWRCH =          95.0891     UZF-1           
             UZF-GWD =           0.0000               UZF-GWD =           0.0000     UZF-1           
            UZF-GWET =           0.0000              UZF-GWET =           0.0000     UZF-1           

            TOTAL IN =       48674.6052              TOTAL IN =          95.0891

          OUT:                                     OUT:
          ----                                     ----
              STO-SS =           6.0785                STO-SS =       3.0776E-03     STORAGE         
              STO-SY =       23925.3688                STO-SY =          11.9063     STORAGE         
                 CHD =       24743.0811                   CHD =          83.1797     CHD-1           
           UZF-GWRCH =           0.0000             UZF-GWRCH =           0.0000     UZF-1           
             UZF-GWD =           0.0000               UZF-GWD =           0.0000     UZF-1           
            UZF-GWET =           0.0000              UZF-GWET =           0.0000     UZF-1           

           TOTAL OUT =       48674.5284             TOTAL OUT =          95.0891

            IN - OUT =       7.6777E-02              IN - OUT =       8.4710E-05

 PERCENT DISCREPANCY =           0.00     PERCENT DISCREPANCY =           0.00




         TIME SUMMARY AT END OF TIME STEP   33 IN STRESS PERIOD    5
                    SECONDS     MINUTES      HOURS       DAYS        YEARS
                    -----------------------------------------------------------
   TIME STEP LENGTH 3.45600E+06  57600.      960.00      40.000     0.10951    
 STRESS PERIOD TIME 1.14048E+08 1.90080E+06  31680.      1320.0      3.6140    
         TOTAL TIME 1.62432E+08 2.70720E+06  45120.      1880.0      5.1472    


end timestep


start timestep kper="5" kstp="34" mode="normal"

 UBDSV1 SAVING     FLOW-JA-FACE ON UNIT   1020 AT TIME STEP     34, STRESS PERIOD      5
 UBDSV06 SAVING     FLOW-JA-FACE IN MODEL GWF_1            PACKAGE UZF-1           CONNECTED TO MODEL GWF_1            PACKAGE UZF-1            ON UNIT   1014 AT TIME STEP     34, STRESS PERIOD      5
 UBDSV06 SAVING              GWF IN MODEL GWF_1            PACKAGE UZF-1           CONNECTED TO MODEL GWF_1            PACKAGE GWF_1            ON UNIT   1014 AT TIME STEP     34, STRESS PERIOD      5
 UBDSV06 SAVING     INFILTRATION IN MODEL GWF_1            PACKAGE UZF-1           CONNECTED TO MODEL GWF_1            PACKAGE UZF-1            ON UNIT   1014 AT TIME STEP     34, STRESS PERIOD      5
 UBDSV06 SAVING          REJ-INF IN MODEL GWF_1            PACKAGE UZF-1           CONNECTED TO MODEL GWF_1            PACKAGE UZF-1            ON UNIT   1014 AT TIME STEP     34, STRESS PERIOD      5
 UBDSV06 SAVING             UZET IN MODEL GWF_1            PACKAGE UZF-1           CONNECTED TO MODEL GWF_1            PACKAGE UZF-1            ON UNIT   1014 AT TIME STEP     34, STRESS PERIOD      5
 UBDSV06 SAVING          STORAGE IN MODEL GWF_1            PACKAGE UZF-1           CONNECTED TO MODEL GWF_1            PACKAGE UZF-1            ON UNIT   1014 AT TIME STEP     34, STRESS PERIOD      5

 CHD PACKAGE (CHD-1) FLOW RATES   PERIOD      5   STEP       34
 -----------------------------------------------
   NUMBER   CELLID                    RATE      
 -----------------------------------------------
     1      (3,1,1)              -42.103273     
     2      (3,1,10)             -42.103273     
 -----------------------------------------------




 UZF-GWRCH PACKAGE (UZF-1) FLOW RATES   PERIOD      5   STEP       34
 ----------------------------------------------------------------------------------------
   NUMBER   CELLID                    RATE       NAME                                    
 ----------------------------------------------------------------------------------------
     1      (1,1,2)               0.0000000      UZF01                                   
     2      (1,1,3)               0.0000000      UZF02                                   
     3      (1,1,4)               0.0000000      UZF03                                   
     4      (1,1,5)               0.0000000      UZF04                                   
     5      (1,1,6)               0.0000000      UZF05                                   
     6      (1,1,7)               0.0000000      UZF06                                   
     7      (1,1,8)               0.0000000      UZF07                                   
     8      (1,1,9)               0.0000000      UZF08                                   
     9      (2,1,2)               0.0000000      UZF08                                   
     10     (2,1,3)               0.0000000      UZF10                                   
     11     (2,1,4)               0.0000000      UZF11                                   
     12     (2,1,5)               0.0000000      UZF12                                   
     13     (2,1,6)               0.0000000      UZF13                                   
     14     (2,1,7)               0.0000000      UZF14                                   
     15     (2,1,8)               0.0000000      UZF15                                   
     16     (2,1,9)               0.0000000      UZF16                                   
     17     (3,1,2)               11.710550      UZF17                                   
     18     (3,1,3)               11.805473      UZF18                                   
     19     (3,1,4)               11.890766      UZF19                                   
     20     (3,1,5)               11.940589      UZF20                                   
     21     (3,1,6)               11.940589      UZF21                                   
     22     (3,1,7)               11.890766      UZF22                                   
     23     (3,1,8)               11.805473      UZF23                                   
     24     (3,1,9)               11.710550      UZF24                                   
 ----------------------------------------------------------------------------------------




 UZF-GWD PACKAGE (UZF-1) FLOW RATES   PERIOD      5   STEP       34
 ----------------------------------------------------------------------------------------
   NUMBER   CELLID                    RATE       NAME                                    
 ----------------------------------------------------------------------------------------
     1      (1,1,2)               0.0000000      UZF01                                   
     2      (1,1,3)               0.0000000      UZF02                                   
     3      (1,1,4)               0.0000000      UZF03                                   
     4      (1,1,5)               0.0000000      UZF04                                   
     5      (1,1,6)               0.0000000      UZF05                                   
     6      (1,1,7)               0.0000000      UZF06                                   
     7      (1,1,8)               0.0000000      UZF07                                   
     8      (1,1,9)               0.0000000      UZF08                                   
     9      (2,1,2)               0.0000000      UZF08                                   
     10     (2,1,3)               0.0000000      UZF10                                   
     11     (2,1,4)               0.0000000      UZF11                                   
     12     (2,1,5)               0.0000000      UZF12                                   
     13     (2,1,6)               0.0000000      UZF13                                   
     14     (2,1,7)               0.0000000      UZF14                                   
     15     (2,1,8)               0.0000000      UZF15                                   
     16     (2,1,9)               0.0000000      UZF16                                   
     17     (3,1,2)               0.0000000      UZF17                                   
     18     (3,1,3)               0.0000000      UZF18                                   
     19     (3,1,4)               0.0000000      UZF19                                   
     20     (3,1,5)               0.0000000      UZF20                                   
     21     (3,1,6)               0.0000000      UZF21                                   
     22     (3,1,7)               0.0000000      UZF22                                   
     23     (3,1,8)               0.0000000      UZF23                                   
     24     (3,1,9)               0.0000000      UZF24                                   
 ----------------------------------------------------------------------------------------




 UZF-GWET PACKAGE (UZF-1) FLOW RATES   PERIOD      5   STEP       34
 ----------------------------------------------------------------------------------------
   NUMBER   CELLID                    RATE       NAME                                    
 ----------------------------------------------------------------------------------------
     1      (1,1,2)               0.0000000      UZF01                                   
     2      (1,1,3)               0.0000000      UZF02                                   
     3      (1,1,4)               0.0000000      UZF03                                   
     4      (1,1,5)               0.0000000      UZF04                                   
     5      (1,1,6)               0.0000000      UZF05                                   
     6      (1,1,7)               0.0000000      UZF06                                   
     7      (1,1,8)               0.0000000      UZF07                                   
     8      (1,1,9)               0.0000000      UZF08                                   
     9      (2,1,2)               0.0000000      UZF08                                   
     10     (2,1,3)               0.0000000      UZF10                                   
     11     (2,1,4)               0.0000000      UZF11                                   
     12     (2,1,5)               0.0000000      UZF12                                   
     13     (2,1,6)               0.0000000      UZF13                                   
     14     (2,1,7)               0.0000000      UZF14                                   
     15     (2,1,8)               0.0000000      UZF15                                   
     16     (2,1,9)               0.0000000      UZF16                                   
     17     (3,1,2)               0.0000000      UZF17                                   
     18     (3,1,3)               0.0000000      UZF18                                   
     19     (3,1,4)               0.0000000      UZF19                                   
     20     (3,1,5)               0.0000000      UZF20                                   
     21     (3,1,6)               0.0000000      UZF21                                   
     22     (3,1,7)               0.0000000      UZF22                                   
     23     (3,1,8)               0.0000000      UZF23                                   
     24     (3,1,9)               0.0000000      UZF24                                   
 ----------------------------------------------------------------------------------------




 UZF-1 PACKAGE - SUMMARY OF FLOWS FOR EACH CONTROL VOLUME   PERIOD      5   STEP       34
 ----------------------------------------------------------------------------------------------------------------------------------------------------
                                                                                                                                           PERCENT   
   NUMBER   CELLID                  INFLOW      OUTFLOW        GWF      INFILTRATION   REJ INF        UZET       STORAGE      IN - OUT    DIFFERENCE 
 ----------------------------------------------------------------------------------------------------------------------------------------------------
     1      (1,1,2)               0.0000      -1.1760       0.0000       0.0000       0.0000       0.0000       1.1760      -1.33005E-13 -1.13097E-11
     2      (1,1,3)               0.0000      -1.1760       0.0000       0.0000       0.0000       0.0000       1.1760      -1.33005E-13 -1.13097E-11
     3      (1,1,4)               0.0000      -1.1760       0.0000       0.0000       0.0000       0.0000       1.1760      -1.33005E-13 -1.13097E-11
     4      (1,1,5)               0.0000      -1.1760       0.0000       0.0000       0.0000       0.0000       1.1760      -1.33005E-13 -1.13097E-11
     5      (1,1,6)               0.0000      -1.1760       0.0000       0.0000       0.0000       0.0000       1.1760      -1.33005E-13 -1.13097E-11
     6      (1,1,7)               0.0000      -1.1760       0.0000       0.0000       0.0000       0.0000       1.1760      -1.33005E-13 -1.13097E-11
     7      (1,1,8)               0.0000      -1.1760       0.0000       0.0000       0.0000       0.0000       1.1760      -1.33005E-13 -1.13097E-11
     8      (1,1,9)               0.0000      -1.1760       0.0000       0.0000       0.0000       0.0000       1.1760      -1.33005E-13 -1.13097E-11
     9      (2,1,2)               1.1760      -8.1680       0.0000       0.0000       0.0000      -3.46960E-02  7.0270       3.33515E-04  4.06582E-03
     10     (2,1,3)               1.1760      -8.1680       0.0000       0.0000       0.0000      -3.46960E-02  7.0270       3.33515E-04  4.06582E-03
     11     (2,1,4)               1.1760      -8.1680       0.0000       0.0000       0.0000      -3.46960E-02  7.0270       3.33515E-04  4.06582E-03
     12     (2,1,5)               1.1760      -8.1680       0.0000       0.0000       0.0000      -3.46960E-02  7.0270       3.33515E-04  4.06582E-03
     13     (2,1,6)               1.1760      -8.1680       0.0000       0.0000       0.0000      -3.46960E-02  7.0270       3.33515E-04  4.06582E-03
     14     (2,1,7)               1.1760      -8.1680       0.0000       0.0000       0.0000      -3.46960E-02  7.0270       3.33515E-04  4.06582E-03
     15     (2,1,8)               1.1760      -8.1680       0.0000       0.0000       0.0000      -3.46960E-02  7.0270       3.33515E-04  4.06582E-03
     16     (2,1,9)               1.1760      -8.1680       0.0000       0.0000       0.0000      -3.46960E-02  7.0270       3.33515E-04  4.06582E-03
     17     (3,1,2)               8.1680       0.0000      -11.711       0.0000       0.0000       0.0000       3.5425       1.14562E-06  9.78278E-06
     18     (3,1,3)               8.1680       0.0000      -11.805       0.0000       0.0000       0.0000       3.6374       1.14562E-06  9.70412E-06
     19     (3,1,4)               8.1680       0.0000      -11.891       0.0000       0.0000       0.0000       3.7227       1.14562E-06  9.63451E-06
     20     (3,1,5)               8.1680       0.0000      -11.941       0.0000       0.0000       0.0000       3.7725       1.14562E-06  9.59431E-06
     21     (3,1,6)               8.1680       0.0000      -11.941       0.0000       0.0000       0.0000       3.7725       1.14562E-06  9.59431E-06
     22     (3,1,7)               8.1680       0.0000      -11.891       0.0000       0.0000       0.0000       3.7227       1.14562E-06  9.63451E-06
     23     (3,1,8)               8.1680       0.0000      -11.805       0.0000       0.0000       0.0000       3.6374       1.14562E-06  9.70412E-06
     24     (3,1,9)               8.1680       0.0000      -11.711       0.0000       0.0000       0.0000       3.5425       1.14562E-06  9.78278E-06
 ----------------------------------------------------------------------------------------------------------------------------------------------------


1
  HEAD IN LAYER   1 AT END OF TIME STEP  34 IN STRESS PERIOD    5
  ---------------------------------------------------------------------------

            1           2           3           4           5           6           7           8           9          10
 ........................................................................................................................
   1   -25.00      -24.92      -24.86      -24.82      -24.80      -24.80      -24.82      -24.86      -24.92      -25.00    
1
  HEAD IN LAYER   2 AT END OF TIME STEP  34 IN STRESS PERIOD    5
  ---------------------------------------------------------------------------

            1           2           3           4           5           6           7           8           9          10
 ........................................................................................................................
   1   -25.00      -24.92      -24.86      -24.82      -24.80      -24.80      -24.82      -24.86      -24.92      -25.00    
1
  HEAD IN LAYER   3 AT END OF TIME STEP  34 IN STRESS PERIOD    5
  ---------------------------------------------------------------------------

            1           2           3           4           5           6           7           8           9          10
 ........................................................................................................................
   1   -25.00      -24.92      -24.86      -24.82      -24.80      -24.80      -24.82      -24.86      -24.92      -25.00    

 HEAD WILL BE SAVED ON UNIT 1022 AT END OF TIME STEP   34, STRESS PERIOD    5


  UZF-1 BUDGET FOR ENTIRE MODEL AT END OF TIME STEP   34, STRESS PERIOD   5
  ------------------------------------------------------------------------------

     CUMULATIVE UZF-1      L**3       RATES FOR THIS TIME STEP      L**3/T
     ------------------                 ------------------------

           IN:                                      IN:
           ---                                      ---
                 GWF =           0.0000                   GWF =           0.0000
        INFILTRATION =      480000.0000          INFILTRATION =           0.0000
             REJ-INF =           0.0000               REJ-INF =           0.0000
                UZET =           0.0000                  UZET =           0.0000
             STORAGE =      468265.0325               STORAGE =          94.9750

            TOTAL IN =      948265.0325              TOTAL IN =          94.9750

          OUT:                                     OUT:
          ----                                     ----
                 GWF =       52462.3954                   GWF =          94.6948
        INFILTRATION =           0.0000          INFILTRATION =           0.0000
             REJ-INF =           0.0000               REJ-INF =           0.0000
                UZET =         864.6662                  UZET =           0.2776
             STORAGE =      894878.6925               STORAGE =           0.0000

           TOTAL OUT =      948205.7541             TOTAL OUT =          94.9723

            IN - OUT =          59.2784              IN - OUT =       2.6773E-03

 PERCENT DISCREPANCY =           0.01     PERCENT DISCREPANCY =           0.00



  VOLUME BUDGET FOR ENTIRE MODEL AT END OF TIME STEP   34, STRESS PERIOD   5
  ---------------------------------------------------------------------------------------------------

     CUMULATIVE VOLUME      L**3       RATES FOR THIS TIME STEP      L**3/T          PACKAGE NAME    
     ------------------                 ------------------------                     ----------------

           IN:                                      IN:
           ---                                      ---
              STO-SS =           0.0000                STO-SS =           0.0000     STORAGE         
              STO-SY =           0.0000                STO-SY =           0.0000     STORAGE         
                 CHD =           0.0000                   CHD =           0.0000     CHD-1           
           UZF-GWRCH =       52462.3954             UZF-GWRCH =          94.6948     UZF-1           
             UZF-GWD =           0.0000               UZF-GWD =           0.0000     UZF-1           
            UZF-GWET =           0.0000              UZF-GWET =           0.0000     UZF-1           

            TOTAL IN =       52462.3954              TOTAL IN =          94.6948

          OUT:                                     OUT:
          ----                                     ----
              STO-SS =           6.1870                STO-SS =       2.7104E-03     STORAGE         
              STO-SY =       24344.7858                STO-SY =          10.4854     STORAGE         
                 CHD =       28111.3429                   CHD =          84.2065     CHD-1           
           UZF-GWRCH =           0.0000             UZF-GWRCH =           0.0000     UZF-1           
             UZF-GWD =           0.0000               UZF-GWD =           0.0000     UZF-1           
            UZF-GWET =           0.0000              UZF-GWET =           0.0000     UZF-1           

           TOTAL OUT =       52462.3157             TOTAL OUT =          94.6947

            IN - OUT =       7.9695E-02              IN - OUT =       7.2957E-05

 PERCENT DISCREPANCY =           0.00     PERCENT DISCREPANCY =           0.00




         TIME SUMMARY AT END OF TIME STEP   34 IN STRESS PERIOD    5
                    SECONDS     MINUTES      HOURS       DAYS        YEARS
                    -----------------------------------------------------------
   TIME STEP LENGTH 3.45600E+06  57600.      960.00      40.000     0.10951    
 STRESS PERIOD TIME 1.17504E+08 1.95840E+06  32640.      1360.0      3.7235    
         TOTAL TIME 1.65888E+08 2.76480E+06  46080.      1920.0      5.2567    


end timestep


start timestep kper="5" kstp="35" mode="normal"

 UBDSV1 SAVING     FLOW-JA-FACE ON UNIT   1020 AT TIME STEP     35, STRESS PERIOD      5
 UBDSV06 SAVING     FLOW-JA-FACE IN MODEL GWF_1            PACKAGE UZF-1           CONNECTED TO MODEL GWF_1            PACKAGE UZF-1            ON UNIT   1014 AT TIME STEP     35, STRESS PERIOD      5
 UBDSV06 SAVING              GWF IN MODEL GWF_1            PACKAGE UZF-1           CONNECTED TO MODEL GWF_1            PACKAGE GWF_1            ON UNIT   1014 AT TIME STEP     35, STRESS PERIOD      5
 UBDSV06 SAVING     INFILTRATION IN MODEL GWF_1            PACKAGE UZF-1           CONNECTED TO MODEL GWF_1            PACKAGE UZF-1            ON UNIT   1014 AT TIME STEP     35, STRESS PERIOD      5
 UBDSV06 SAVING          REJ-INF IN MODEL GWF_1            PACKAGE UZF-1           CONNECTED TO MODEL GWF_1            PACKAGE UZF-1            ON UNIT   1014 AT TIME STEP     35, STRESS PERIOD      5
 UBDSV06 SAVING             UZET IN MODEL GWF_1            PACKAGE UZF-1           CONNECTED TO MODEL GWF_1            PACKAGE UZF-1            ON UNIT   1014 AT TIME STEP     35, STRESS PERIOD      5
 UBDSV06 SAVING          STORAGE IN MODEL GWF_1            PACKAGE UZF-1           CONNECTED TO MODEL GWF_1            PACKAGE UZF-1            ON UNIT   1014 AT TIME STEP     35, STRESS PERIOD      5

 CHD PACKAGE (CHD-1) FLOW RATES   PERIOD      5   STEP       35
 -----------------------------------------------
   NUMBER   CELLID                    RATE      
 -----------------------------------------------
     1      (3,1,1)              -42.293516     
     2      (3,1,10)             -42.293516     
 -----------------------------------------------




 UZF-GWRCH PACKAGE (UZF-1) FLOW RATES   PERIOD      5   STEP       35
 ----------------------------------------------------------------------------------------
   NUMBER   CELLID                    RATE       NAME                                    
 ----------------------------------------------------------------------------------------
     1      (1,1,2)               0.0000000      UZF01                                   
     2      (1,1,3)               0.0000000      UZF02                                   
     3      (1,1,4)               0.0000000      UZF03                                   
     4      (1,1,5)               0.0000000      UZF04                                   
     5      (1,1,6)               0.0000000      UZF05                                   
     6      (1,1,7)               0.0000000      UZF06                                   
     7      (1,1,8)               0.0000000      UZF07                                   
     8      (1,1,9)               0.0000000      UZF08                                   
     9      (2,1,2)               0.0000000      UZF08                                   
     10     (2,1,3)               0.0000000      UZF10                                   
     11     (2,1,4)               0.0000000      UZF11                                   
     12     (2,1,5)               0.0000000      UZF12                                   
     13     (2,1,6)               0.0000000      UZF13                                   
     14     (2,1,7)               0.0000000      UZF14                                   
     15     (2,1,8)               0.0000000      UZF15                                   
     16     (2,1,9)               0.0000000      UZF16                                   
     17     (3,1,2)               11.239589      UZF17                                   
     18     (3,1,3)               11.213383      UZF18                                   
     19     (3,1,4)               11.213763      UZF19                                   
     20     (3,1,5)               11.219829      UZF20                                   
     21     (3,1,6)               11.219829      UZF21                                   
     22     (3,1,7)               11.213763      UZF22                                   
     23     (3,1,8)               11.213383      UZF23                                   
     24     (3,1,9)               11.239589      UZF24                                   
 ----------------------------------------------------------------------------------------




 UZF-GWD PACKAGE (UZF-1) FLOW RATES   PERIOD      5   STEP       35
 ----------------------------------------------------------------------------------------
   NUMBER   CELLID                    RATE       NAME                                    
 ----------------------------------------------------------------------------------------
     1      (1,1,2)               0.0000000      UZF01                                   
     2      (1,1,3)               0.0000000      UZF02                                   
     3      (1,1,4)               0.0000000      UZF03                                   
     4      (1,1,5)               0.0000000      UZF04                                   
     5      (1,1,6)               0.0000000      UZF05                                   
     6      (1,1,7)               0.0000000      UZF06                                   
     7      (1,1,8)               0.0000000      UZF07                                   
     8      (1,1,9)               0.0000000      UZF08                                   
     9      (2,1,2)               0.0000000      UZF08                                   
     10     (2,1,3)               0.0000000      UZF10                                   
     11     (2,1,4)               0.0000000      UZF11                                   
     12     (2,1,5)               0.0000000      UZF12                                   
     13     (2,1,6)               0.0000000      UZF13                                   
     14     (2,1,7)               0.0000000      UZF14                                   
     15     (2,1,8)               0.0000000      UZF15                                   
     16     (2,1,9)               0.0000000      UZF16                                   
     17     (3,1,2)               0.0000000      UZF17                                   
     18     (3,1,3)               0.0000000      UZF18                                   
     19     (3,1,4)               0.0000000      UZF19                                   
     20     (3,1,5)               0.0000000      UZF20                                   
     21     (3,1,6)               0.0000000      UZF21                                   
     22     (3,1,7)               0.0000000      UZF22                                   
     23     (3,1,8)               0.0000000      UZF23                                   
     24     (3,1,9)               0.0000000      UZF24                                   
 ----------------------------------------------------------------------------------------




 UZF-GWET PACKAGE (UZF-1) FLOW RATES   PERIOD      5   STEP       35
 ----------------------------------------------------------------------------------------
   NUMBER   CELLID                    RATE       NAME                                    
 ----------------------------------------------------------------------------------------
     1      (1,1,2)               0.0000000      UZF01                                   
     2      (1,1,3)               0.0000000      UZF02                                   
     3      (1,1,4)               0.0000000      UZF03                                   
     4      (1,1,5)               0.0000000      UZF04                                   
     5      (1,1,6)               0.0000000      UZF05                                   
     6      (1,1,7)               0.0000000      UZF06                                   
     7      (1,1,8)               0.0000000      UZF07                                   
     8      (1,1,9)               0.0000000      UZF08                                   
     9      (2,1,2)               0.0000000      UZF08                                   
     10     (2,1,3)               0.0000000      UZF10                                   
     11     (2,1,4)               0.0000000      UZF11                                   
     12     (2,1,5)               0.0000000      UZF12                                   
     13     (2,1,6)               0.0000000      UZF13                                   
     14     (2,1,7)               0.0000000      UZF14                                   
     15     (2,1,8)               0.0000000      UZF15                                   
     16     (2,1,9)               0.0000000      UZF16                                   
     17     (3,1,2)               0.0000000      UZF17                                   
     18     (3,1,3)               0.0000000      UZF18                                   
     19     (3,1,4)               0.0000000      UZF19                                   
     20     (3,1,5)               0.0000000      UZF20                                   
     21     (3,1,6)               0.0000000      UZF21                                   
     22     (3,1,7)               0.0000000      UZF22                                   
     23     (3,1,8)               0.0000000      UZF23                                   
     24     (3,1,9)               0.0000000      UZF24                                   
 ----------------------------------------------------------------------------------------




 UZF-1 PACKAGE - SUMMARY OF FLOWS FOR EACH CONTROL VOLUME   PERIOD      5   STEP       35
 ----------------------------------------------------------------------------------------------------------------------------------------------------
                                                                                                                                           PERCENT   
   NUMBER   CELLID                  INFLOW      OUTFLOW        GWF      INFILTRATION   REJ INF        UZET       STORAGE      IN - OUT    DIFFERENCE 
 ----------------------------------------------------------------------------------------------------------------------------------------------------
     1      (1,1,2)               0.0000      -1.1760       0.0000       0.0000       0.0000       0.0000       1.1760       2.33147E-14  1.98249E-12
     2      (1,1,3)               0.0000      -1.1760       0.0000       0.0000       0.0000       0.0000       1.1760       2.33147E-14  1.98249E-12
     3      (1,1,4)               0.0000      -1.1760       0.0000       0.0000       0.0000       0.0000       1.1760       2.33147E-14  1.98249E-12
     4      (1,1,5)               0.0000      -1.1760       0.0000       0.0000       0.0000       0.0000       1.1760       2.33147E-14  1.98249E-12
     5      (1,1,6)               0.0000      -1.1760       0.0000       0.0000       0.0000       0.0000       1.1760       2.33147E-14  1.98249E-12
     6      (1,1,7)               0.0000      -1.1760       0.0000       0.0000       0.0000       0.0000       1.1760       2.33147E-14  1.98249E-12
     7      (1,1,8)               0.0000      -1.1760       0.0000       0.0000       0.0000       0.0000       1.1760       2.33147E-14  1.98249E-12
     8      (1,1,9)               0.0000      -1.1760       0.0000       0.0000       0.0000       0.0000       1.1760       2.33147E-14  1.98249E-12
     9      (2,1,2)               1.1760      -8.1655       0.0000       0.0000       0.0000      -3.36262E-02  7.0235       3.36870E-04  4.10850E-03
     10     (2,1,3)               1.1760      -8.1655       0.0000       0.0000       0.0000      -3.36262E-02  7.0235       3.36870E-04  4.10850E-03
     11     (2,1,4)               1.1760      -8.1655       0.0000       0.0000       0.0000      -3.36262E-02  7.0235       3.36870E-04  4.10850E-03
     12     (2,1,5)               1.1760      -8.1655       0.0000       0.0000       0.0000      -3.36262E-02  7.0235       3.36870E-04  4.10850E-03
     13     (2,1,6)               1.1760      -8.1655       0.0000       0.0000       0.0000      -3.36262E-02  7.0235       3.36870E-04  4.10850E-03
     14     (2,1,7)               1.1760      -8.1655       0.0000       0.0000       0.0000      -3.36262E-02  7.0235       3.36870E-04  4.10850E-03
     15     (2,1,8)               1.1760      -8.1655       0.0000       0.0000       0.0000      -3.36262E-02  7.0235       3.36870E-04  4.10850E-03
     16     (2,1,9)               1.1760      -8.1655       0.0000       0.0000       0.0000      -3.36262E-02  7.0235       3.36870E-04  4.10850E-03
     17     (3,1,2)               8.1655       0.0000      -11.240       0.0000       0.0000       0.0000       3.0741       1.14535E-06  1.01903E-05
     18     (3,1,3)               8.1655       0.0000      -11.213       0.0000       0.0000       0.0000       3.0478       1.14535E-06  1.02141E-05
     19     (3,1,4)               8.1655       0.0000      -11.214       0.0000       0.0000       0.0000       3.0482       1.14535E-06  1.02138E-05
     20     (3,1,5)               8.1655       0.0000      -11.220       0.0000       0.0000       0.0000       3.0543       1.14535E-06  1.02082E-05
     21     (3,1,6)               8.1655       0.0000      -11.220       0.0000       0.0000       0.0000       3.0543       1.14535E-06  1.02082E-05
     22     (3,1,7)               8.1655       0.0000      -11.214       0.0000       0.0000       0.0000       3.0482       1.14535E-06  1.02138E-05
     23     (3,1,8)               8.1655       0.0000      -11.213       0.0000       0.0000       0.0000       3.0478       1.14535E-06  1.02141E-05
     24     (3,1,9)               8.1655       0.0000      -11.240       0.0000       0.0000       0.0000       3.0741       1.14535E-06  1.01903E-05
 ----------------------------------------------------------------------------------------------------------------------------------------------------


1
  HEAD IN LAYER   1 AT END OF TIME STEP  35 IN STRESS PERIOD    5
  ---------------------------------------------------------------------------

            1           2           3           4           5           6           7           8           9          10
 ........................................................................................................................
   1   -25.00      -24.92      -24.86      -24.82      -24.80      -24.80      -24.82      -24.86      -24.92      -25.00    
1
  HEAD IN LAYER   2 AT END OF TIME STEP  35 IN STRESS PERIOD    5
  ---------------------------------------------------------------------------

            1           2           3           4           5           6           7           8           9          10
 ........................................................................................................................
   1   -25.00      -24.92      -24.86      -24.82      -24.80      -24.80      -24.82      -24.86      -24.92      -25.00    
1
  HEAD IN LAYER   3 AT END OF TIME STEP  35 IN STRESS PERIOD    5
  ---------------------------------------------------------------------------

            1           2           3           4           5           6           7           8           9          10
 ........................................................................................................................
   1   -25.00      -24.92      -24.86      -24.82      -24.80      -24.80      -24.82      -24.86      -24.92      -25.00    

 HEAD WILL BE SAVED ON UNIT 1022 AT END OF TIME STEP   35, STRESS PERIOD    5


  UZF-1 BUDGET FOR ENTIRE MODEL AT END OF TIME STEP   35, STRESS PERIOD   5
  ------------------------------------------------------------------------------

     CUMULATIVE UZF-1      L**3       RATES FOR THIS TIME STEP      L**3/T
     ------------------                 ------------------------

           IN:                                      IN:
           ---                                      ---
                 GWF =           0.0000                   GWF =           0.0000
        INFILTRATION =      480000.0000          INFILTRATION =           0.0000
             REJ-INF =           0.0000               REJ-INF =           0.0000
                UZET =           0.0000                  UZET =           0.0000
             STORAGE =      471866.8262               STORAGE =          90.0448

            TOTAL IN =      951866.8262              TOTAL IN =          90.0448

          OUT:                                     OUT:
          ----                                     ----
                 GWF =       56053.3205                   GWF =          89.7731
        INFILTRATION =           0.0000          INFILTRATION =           0.0000
             REJ-INF =           0.0000               REJ-INF =           0.0000
                UZET =         875.4266                  UZET =           0.2690
             STORAGE =      894878.6925               STORAGE =           0.0000

           TOTAL OUT =      951807.4396             TOTAL OUT =          90.0421

            IN - OUT =          59.3866              IN - OUT =       2.7041E-03

 PERCENT DISCREPANCY =           0.01     PERCENT DISCREPANCY =           0.00



  VOLUME BUDGET FOR ENTIRE MODEL AT END OF TIME STEP   35, STRESS PERIOD   5
  ---------------------------------------------------------------------------------------------------

     CUMULATIVE VOLUME      L**3       RATES FOR THIS TIME STEP      L**3/T          PACKAGE NAME    
     ------------------                 ------------------------                     ----------------

           IN:                                      IN:
           ---                                      ---
              STO-SS =           0.0000                STO-SS =           0.0000     STORAGE         
              STO-SY =           0.0000                STO-SY =           0.0000     STORAGE         
                 CHD =           0.0000                   CHD =           0.0000     CHD-1           
           UZF-GWRCH =       56053.3205             UZF-GWRCH =          89.7731     UZF-1           
             UZF-GWD =           0.0000               UZF-GWD =           0.0000     UZF-1           
            UZF-GWET =           0.0000              UZF-GWET =           0.0000     UZF-1           

            TOTAL IN =       56053.3205              TOTAL IN =          89.7731

          OUT:                                     OUT:
          ----                                     ----
              STO-SS =           6.2406                STO-SS =       1.3416E-03     STORAGE         
              STO-SY =       24552.1663                STO-SY =           5.1845     STORAGE         
                 CHD =       31494.8241                   CHD =          84.5870     CHD-1           
           UZF-GWRCH =           0.0000             UZF-GWRCH =           0.0000     UZF-1           
             UZF-GWD =           0.0000               UZF-GWD =           0.0000     UZF-1           
            UZF-GWET =           0.0000              UZF-GWET =           0.0000     UZF-1           

           TOTAL OUT =       56053.2310             TOTAL OUT =          89.7729

            IN - OUT =       8.9512E-02              IN - OUT =       2.4540E-04

 PERCENT DISCREPANCY =           0.00     PERCENT DISCREPANCY =           0.00




         TIME SUMMARY AT END OF TIME STEP   35 IN STRESS PERIOD    5
                    SECONDS     MINUTES      HOURS       DAYS        YEARS
                    -----------------------------------------------------------
   TIME STEP LENGTH 3.45600E+06  57600.      960.00      40.000     0.10951    
 STRESS PERIOD TIME 1.20960E+08 2.01600E+06  33600.      1400.0      3.8330    
         TOTAL TIME 1.69344E+08 2.82240E+06  47040.      1960.0      5.3662    


end timestep


start timestep kper="5" kstp="36" mode="normal"

 UBDSV1 SAVING     FLOW-JA-FACE ON UNIT   1020 AT TIME STEP     36, STRESS PERIOD      5
 UBDSV06 SAVING     FLOW-JA-FACE IN MODEL GWF_1            PACKAGE UZF-1           CONNECTED TO MODEL GWF_1            PACKAGE UZF-1            ON UNIT   1014 AT TIME STEP     36, STRESS PERIOD      5
 UBDSV06 SAVING              GWF IN MODEL GWF_1            PACKAGE UZF-1           CONNECTED TO MODEL GWF_1            PACKAGE GWF_1            ON UNIT   1014 AT TIME STEP     36, STRESS PERIOD      5
 UBDSV06 SAVING     INFILTRATION IN MODEL GWF_1            PACKAGE UZF-1           CONNECTED TO MODEL GWF_1            PACKAGE UZF-1            ON UNIT   1014 AT TIME STEP     36, STRESS PERIOD      5
 UBDSV06 SAVING          REJ-INF IN MODEL GWF_1            PACKAGE UZF-1           CONNECTED TO MODEL GWF_1            PACKAGE UZF-1            ON UNIT   1014 AT TIME STEP     36, STRESS PERIOD      5
 UBDSV06 SAVING             UZET IN MODEL GWF_1            PACKAGE UZF-1           CONNECTED TO MODEL GWF_1            PACKAGE UZF-1            ON UNIT   1014 AT TIME STEP     36, STRESS PERIOD      5
 UBDSV06 SAVING          STORAGE IN MODEL GWF_1            PACKAGE UZF-1           CONNECTED TO MODEL GWF_1            PACKAGE UZF-1            ON UNIT   1014 AT TIME STEP     36, STRESS PERIOD      5

 CHD PACKAGE (CHD-1) FLOW RATES   PERIOD      5   STEP       36
 -----------------------------------------------
   NUMBER   CELLID                    RATE      
 -----------------------------------------------
     1      (3,1,1)              -42.226731     
     2      (3,1,10)             -42.226731     
 -----------------------------------------------




 UZF-GWRCH PACKAGE (UZF-1) FLOW RATES   PERIOD      5   STEP       36
 ----------------------------------------------------------------------------------------
   NUMBER   CELLID                    RATE       NAME                                    
 ----------------------------------------------------------------------------------------
     1      (1,1,2)               0.0000000      UZF01                                   
     2      (1,1,3)               0.0000000      UZF02                                   
     3      (1,1,4)               0.0000000      UZF03                                   
     4      (1,1,5)               0.0000000      UZF04                                   
     5      (1,1,6)               0.0000000      UZF05                                   
     6      (1,1,7)               0.0000000      UZF06                                   
     7      (1,1,8)               0.0000000      UZF07                                   
     8      (1,1,9)               0.0000000      UZF08                                   
     9      (2,1,2)               0.0000000      UZF08                                   
     10     (2,1,3)               0.0000000      UZF10                                   
     11     (2,1,4)               0.0000000      UZF11                                   
     12     (2,1,5)               0.0000000      UZF12                                   
     13     (2,1,6)               0.0000000      UZF13                                   
     14     (2,1,7)               0.0000000      UZF14                                   
     15     (2,1,8)               0.0000000      UZF15                                   
     16     (2,1,9)               0.0000000      UZF16                                   
     17     (3,1,2)               10.776313      UZF17                                   
     18     (3,1,3)               10.727020      UZF18                                   
     19     (3,1,4)               10.700145      UZF19                                   
     20     (3,1,5)               10.686269      UZF20                                   
     21     (3,1,6)               10.686269      UZF21                                   
     22     (3,1,7)               10.700145      UZF22                                   
     23     (3,1,8)               10.727020      UZF23                                   
     24     (3,1,9)               10.776313      UZF24                                   
 ----------------------------------------------------------------------------------------




 UZF-GWD PACKAGE (UZF-1) FLOW RATES   PERIOD      5   STEP       36
 ----------------------------------------------------------------------------------------
   NUMBER   CELLID                    RATE       NAME                                    
 ----------------------------------------------------------------------------------------
     1      (1,1,2)               0.0000000      UZF01                                   
     2      (1,1,3)               0.0000000      UZF02                                   
     3      (1,1,4)               0.0000000      UZF03                                   
     4      (1,1,5)               0.0000000      UZF04                                   
     5      (1,1,6)               0.0000000      UZF05                                   
     6      (1,1,7)               0.0000000      UZF06                                   
     7      (1,1,8)               0.0000000      UZF07                                   
     8      (1,1,9)               0.0000000      UZF08                                   
     9      (2,1,2)               0.0000000      UZF08                                   
     10     (2,1,3)               0.0000000      UZF10                                   
     11     (2,1,4)               0.0000000      UZF11                                   
     12     (2,1,5)               0.0000000      UZF12                                   
     13     (2,1,6)               0.0000000      UZF13                                   
     14     (2,1,7)               0.0000000      UZF14                                   
     15     (2,1,8)               0.0000000      UZF15                                   
     16     (2,1,9)               0.0000000      UZF16                                   
     17     (3,1,2)               0.0000000      UZF17                                   
     18     (3,1,3)               0.0000000      UZF18                                   
     19     (3,1,4)               0.0000000      UZF19                                   
     20     (3,1,5)               0.0000000      UZF20                                   
     21     (3,1,6)               0.0000000      UZF21                                   
     22     (3,1,7)               0.0000000      UZF22                                   
     23     (3,1,8)               0.0000000      UZF23                                   
     24     (3,1,9)               0.0000000      UZF24                                   
 ----------------------------------------------------------------------------------------




 UZF-GWET PACKAGE (UZF-1) FLOW RATES   PERIOD      5   STEP       36
 ----------------------------------------------------------------------------------------
   NUMBER   CELLID                    RATE       NAME                                    
 ----------------------------------------------------------------------------------------
     1      (1,1,2)               0.0000000      UZF01                                   
     2      (1,1,3)               0.0000000      UZF02                                   
     3      (1,1,4)               0.0000000      UZF03                                   
     4      (1,1,5)               0.0000000      UZF04                                   
     5      (1,1,6)               0.0000000      UZF05                                   
     6      (1,1,7)               0.0000000      UZF06                                   
     7      (1,1,8)               0.0000000      UZF07                                   
     8      (1,1,9)               0.0000000      UZF08                                   
     9      (2,1,2)               0.0000000      UZF08                                   
     10     (2,1,3)               0.0000000      UZF10                                   
     11     (2,1,4)               0.0000000      UZF11                                   
     12     (2,1,5)               0.0000000      UZF12                                   
     13     (2,1,6)               0.0000000      UZF13                                   
     14     (2,1,7)               0.0000000      UZF14                                   
     15     (2,1,8)               0.0000000      UZF15                                   
     16     (2,1,9)               0.0000000      UZF16                                   
     17     (3,1,2)               0.0000000      UZF17                                   
     18     (3,1,3)               0.0000000      UZF18                                   
     19     (3,1,4)               0.0000000      UZF19                                   
     20     (3,1,5)               0.0000000      UZF20                                   
     21     (3,1,6)               0.0000000      UZF21                                   
     22     (3,1,7)               0.0000000      UZF22                                   
     23     (3,1,8)               0.0000000      UZF23                                   
     24     (3,1,9)               0.0000000      UZF24                                   
 ----------------------------------------------------------------------------------------




 UZF-1 PACKAGE - SUMMARY OF FLOWS FOR EACH CONTROL VOLUME   PERIOD      5   STEP       36
 ----------------------------------------------------------------------------------------------------------------------------------------------------
                                                                                                                                           PERCENT   
   NUMBER   CELLID                  INFLOW      OUTFLOW        GWF      INFILTRATION   REJ INF        UZET       STORAGE      IN - OUT    DIFFERENCE 
 ----------------------------------------------------------------------------------------------------------------------------------------------------
     1      (1,1,2)               0.0000      -1.1760       0.0000       0.0000       0.0000       0.0000       1.1760       2.33147E-14  1.98249E-12
     2      (1,1,3)               0.0000      -1.1760       0.0000       0.0000       0.0000       0.0000       1.1760       2.33147E-14  1.98249E-12
     3      (1,1,4)               0.0000      -1.1760       0.0000       0.0000       0.0000       0.0000       1.1760       2.33147E-14  1.98249E-12
     4      (1,1,5)               0.0000      -1.1760       0.0000       0.0000       0.0000       0.0000       1.1760       2.33147E-14  1.98249E-12
     5      (1,1,6)               0.0000      -1.1760       0.0000       0.0000       0.0000       0.0000       1.1760       2.33147E-14  1.98249E-12
     6      (1,1,7)               0.0000      -1.1760       0.0000       0.0000       0.0000       0.0000       1.1760       2.33147E-14  1.98249E-12
     7      (1,1,8)               0.0000      -1.1760       0.0000       0.0000       0.0000       0.0000       1.1760       2.33147E-14  1.98249E-12
     8      (1,1,9)               0.0000      -1.1760       0.0000       0.0000       0.0000       0.0000       1.1760       2.33147E-14  1.98249E-12
     9      (2,1,2)               1.1760      -7.5900       0.0000       0.0000       0.0000      -3.25563E-02  6.4468       3.39798E-04  4.45771E-03
     10     (2,1,3)               1.1760      -7.5900       0.0000       0.0000       0.0000      -3.25563E-02  6.4468       3.39798E-04  4.45771E-03
     11     (2,1,4)               1.1760      -7.5900       0.0000       0.0000       0.0000      -3.25563E-02  6.4468       3.39798E-04  4.45771E-03
     12     (2,1,5)               1.1760      -7.5900       0.0000       0.0000       0.0000      -3.25563E-02  6.4468       3.39798E-04  4.45771E-03
     13     (2,1,6)               1.1760      -7.5900       0.0000       0.0000       0.0000      -3.25563E-02  6.4468       3.39798E-04  4.45771E-03
     14     (2,1,7)               1.1760      -7.5900       0.0000       0.0000       0.0000      -3.25563E-02  6.4468       3.39798E-04  4.45771E-03
     15     (2,1,8)               1.1760      -7.5900       0.0000       0.0000       0.0000      -3.25563E-02  6.4468       3.39798E-04  4.45771E-03
     16     (2,1,9)               1.1760      -7.5900       0.0000       0.0000       0.0000      -3.25563E-02  6.4468       3.39798E-04  4.45771E-03
     17     (3,1,2)               7.5900       0.0000      -10.776       0.0000       0.0000       0.0000       3.1863       1.09054E-06  1.01197E-05
     18     (3,1,3)               7.5900       0.0000      -10.727       0.0000       0.0000       0.0000       3.1370       1.09054E-06  1.01662E-05
     19     (3,1,4)               7.5900       0.0000      -10.700       0.0000       0.0000       0.0000       3.1102       1.09054E-06  1.01918E-05
     20     (3,1,5)               7.5900       0.0000      -10.686       0.0000       0.0000       0.0000       3.0963       1.09054E-06  1.02050E-05
     21     (3,1,6)               7.5900       0.0000      -10.686       0.0000       0.0000       0.0000       3.0963       1.09053E-06  1.02050E-05
     22     (3,1,7)               7.5900       0.0000      -10.700       0.0000       0.0000       0.0000       3.1102       1.09054E-06  1.01918E-05
     23     (3,1,8)               7.5900       0.0000      -10.727       0.0000       0.0000       0.0000       3.1370       1.09054E-06  1.01662E-05
     24     (3,1,9)               7.5900       0.0000      -10.776       0.0000       0.0000       0.0000       3.1863       1.09054E-06  1.01197E-05
 ----------------------------------------------------------------------------------------------------------------------------------------------------


1
  HEAD IN LAYER   1 AT END OF TIME STEP  36 IN STRESS PERIOD    5
  ---------------------------------------------------------------------------

            1           2           3           4           5           6           7           8           9          10
 ........................................................................................................................
   1   -25.00      -24.92      -24.86      -24.82      -24.80      -24.80      -24.82      -24.86      -24.92      -25.00    
1
  HEAD IN LAYER   2 AT END OF TIME STEP  36 IN STRESS PERIOD    5
  ---------------------------------------------------------------------------

            1           2           3           4           5           6           7           8           9          10
 ........................................................................................................................
   1   -25.00      -24.92      -24.86      -24.82      -24.80      -24.80      -24.82      -24.86      -24.92      -25.00    
1
  HEAD IN LAYER   3 AT END OF TIME STEP  36 IN STRESS PERIOD    5
  ---------------------------------------------------------------------------

            1           2           3           4           5           6           7           8           9          10
 ........................................................................................................................
   1   -25.00      -24.92      -24.86      -24.82      -24.80      -24.80      -24.82      -24.86      -24.92      -25.00    

 HEAD WILL BE SAVED ON UNIT 1022 AT END OF TIME STEP   36, STRESS PERIOD    5


  UZF-1 BUDGET FOR ENTIRE MODEL AT END OF TIME STEP   36, STRESS PERIOD   5
  ------------------------------------------------------------------------------

     CUMULATIVE UZF-1      L**3       RATES FOR THIS TIME STEP      L**3/T
     ------------------                 ------------------------

           IN:                                      IN:
           ---                                      ---
                 GWF =           0.0000                   GWF =           0.0000
        INFILTRATION =      480000.0000          INFILTRATION =           0.0000
             REJ-INF =           0.0000               REJ-INF =           0.0000
                UZET =           0.0000                  UZET =           0.0000
             STORAGE =      475308.5331               STORAGE =          86.0427

            TOTAL IN =      955308.5331              TOTAL IN =          86.0427

          OUT:                                     OUT:
          ----                                     ----
                 GWF =       59484.5003                   GWF =          85.7795
        INFILTRATION =           0.0000          INFILTRATION =           0.0000
             REJ-INF =           0.0000               REJ-INF =           0.0000
                UZET =         885.8446                  UZET =           0.2605
             STORAGE =      894878.6925               STORAGE =           0.0000

           TOTAL OUT =      955249.0374             TOTAL OUT =          86.0399

            IN - OUT =          59.4957              IN - OUT =       2.7271E-03

 PERCENT DISCREPANCY =           0.01     PERCENT DISCREPANCY =           0.00



  VOLUME BUDGET FOR ENTIRE MODEL AT END OF TIME STEP   36, STRESS PERIOD   5
  ---------------------------------------------------------------------------------------------------

     CUMULATIVE VOLUME      L**3       RATES FOR THIS TIME STEP      L**3/T          PACKAGE NAME    
     ------------------                 ------------------------                     ----------------

           IN:                                      IN:
           ---                                      ---
              STO-SS =       1.3142E-03                STO-SS =       3.2855E-05     STORAGE         
              STO-SY =           5.1708                STO-SY =           0.1293     STORAGE         
                 CHD =           0.0000                   CHD =           0.0000     CHD-1           
           UZF-GWRCH =       59484.5003             UZF-GWRCH =          85.7795     UZF-1           
             UZF-GWD =           0.0000               UZF-GWD =           0.0000     UZF-1           
            UZF-GWET =           0.0000              UZF-GWET =           0.0000     UZF-1           

            TOTAL IN =       59489.6725              TOTAL IN =          85.9088

          OUT:                                     OUT:
          ----                                     ----
              STO-SS =           6.2557                STO-SS =       3.7754E-04     STORAGE         
              STO-SY =       24610.3617                STO-SY =           1.4549     STORAGE         
                 CHD =       34872.9626                   CHD =          84.4535     CHD-1           
           UZF-GWRCH =           0.0000             UZF-GWRCH =           0.0000     UZF-1           
             UZF-GWD =           0.0000               UZF-GWD =           0.0000     UZF-1           
            UZF-GWET =           0.0000              UZF-GWET =           0.0000     UZF-1           

           TOTAL OUT =       59489.5800             TOTAL OUT =          85.9087

            IN - OUT =       9.2485E-02              IN - OUT =       7.4336E-05

 PERCENT DISCREPANCY =           0.00     PERCENT DISCREPANCY =           0.00




         TIME SUMMARY AT END OF TIME STEP   36 IN STRESS PERIOD    5
                    SECONDS     MINUTES      HOURS       DAYS        YEARS
                    -----------------------------------------------------------
   TIME STEP LENGTH 3.45600E+06  57600.      960.00      40.000     0.10951    
 STRESS PERIOD TIME 1.24416E+08 2.07360E+06  34560.      1440.0      3.9425    
         TOTAL TIME 1.72800E+08 2.88000E+06  48000.      2000.0      5.4757    


end timestep


start timestep kper="5" kstp="37" mode="normal"

 UBDSV1 SAVING     FLOW-JA-FACE ON UNIT   1020 AT TIME STEP     37, STRESS PERIOD      5
 UBDSV06 SAVING     FLOW-JA-FACE IN MODEL GWF_1            PACKAGE UZF-1           CONNECTED TO MODEL GWF_1            PACKAGE UZF-1            ON UNIT   1014 AT TIME STEP     37, STRESS PERIOD      5
 UBDSV06 SAVING              GWF IN MODEL GWF_1            PACKAGE UZF-1           CONNECTED TO MODEL GWF_1            PACKAGE GWF_1            ON UNIT   1014 AT TIME STEP     37, STRESS PERIOD      5
 UBDSV06 SAVING     INFILTRATION IN MODEL GWF_1            PACKAGE UZF-1           CONNECTED TO MODEL GWF_1            PACKAGE UZF-1            ON UNIT   1014 AT TIME STEP     37, STRESS PERIOD      5
 UBDSV06 SAVING          REJ-INF IN MODEL GWF_1            PACKAGE UZF-1           CONNECTED TO MODEL GWF_1            PACKAGE UZF-1            ON UNIT   1014 AT TIME STEP     37, STRESS PERIOD      5
 UBDSV06 SAVING             UZET IN MODEL GWF_1            PACKAGE UZF-1           CONNECTED TO MODEL GWF_1            PACKAGE UZF-1            ON UNIT   1014 AT TIME STEP     37, STRESS PERIOD      5
 UBDSV06 SAVING          STORAGE IN MODEL GWF_1            PACKAGE UZF-1           CONNECTED TO MODEL GWF_1            PACKAGE UZF-1            ON UNIT   1014 AT TIME STEP     37, STRESS PERIOD      5

 CHD PACKAGE (CHD-1) FLOW RATES   PERIOD      5   STEP       37
 -----------------------------------------------
   NUMBER   CELLID                    RATE      
 -----------------------------------------------
     1      (3,1,1)              -41.701095     
     2      (3,1,10)             -41.701095     
 -----------------------------------------------




 UZF-GWRCH PACKAGE (UZF-1) FLOW RATES   PERIOD      5   STEP       37
 ----------------------------------------------------------------------------------------
   NUMBER   CELLID                    RATE       NAME                                    
 ----------------------------------------------------------------------------------------
     1      (1,1,2)               0.0000000      UZF01                                   
     2      (1,1,3)               0.0000000      UZF02                                   
     3      (1,1,4)               0.0000000      UZF03                                   
     4      (1,1,5)               0.0000000      UZF04                                   
     5      (1,1,6)               0.0000000      UZF05                                   
     6      (1,1,7)               0.0000000      UZF06                                   
     7      (1,1,8)               0.0000000      UZF07                                   
     8      (1,1,9)               0.0000000      UZF08                                   
     9      (2,1,2)               0.0000000      UZF08                                   
     10     (2,1,3)               0.0000000      UZF10                                   
     11     (2,1,4)               0.0000000      UZF11                                   
     12     (2,1,5)               0.0000000      UZF12                                   
     13     (2,1,6)               0.0000000      UZF13                                   
     14     (2,1,7)               0.0000000      UZF14                                   
     15     (2,1,8)               0.0000000      UZF15                                   
     16     (2,1,9)               0.0000000      UZF16                                   
     17     (3,1,2)               9.9193363      UZF17                                   
     18     (3,1,3)               9.8713573      UZF18                                   
     19     (3,1,4)               9.8670750      UZF19                                   
     20     (3,1,5)               9.8755461      UZF20                                   
     21     (3,1,6)               9.8755461      UZF21                                   
     22     (3,1,7)               9.8670750      UZF22                                   
     23     (3,1,8)               9.8713573      UZF23                                   
     24     (3,1,9)               9.9193363      UZF24                                   
 ----------------------------------------------------------------------------------------




 UZF-GWD PACKAGE (UZF-1) FLOW RATES   PERIOD      5   STEP       37
 ----------------------------------------------------------------------------------------
   NUMBER   CELLID                    RATE       NAME                                    
 ----------------------------------------------------------------------------------------
     1      (1,1,2)               0.0000000      UZF01                                   
     2      (1,1,3)               0.0000000      UZF02                                   
     3      (1,1,4)               0.0000000      UZF03                                   
     4      (1,1,5)               0.0000000      UZF04                                   
     5      (1,1,6)               0.0000000      UZF05                                   
     6      (1,1,7)               0.0000000      UZF06                                   
     7      (1,1,8)               0.0000000      UZF07                                   
     8      (1,1,9)               0.0000000      UZF08                                   
     9      (2,1,2)               0.0000000      UZF08                                   
     10     (2,1,3)               0.0000000      UZF10                                   
     11     (2,1,4)               0.0000000      UZF11                                   
     12     (2,1,5)               0.0000000      UZF12                                   
     13     (2,1,6)               0.0000000      UZF13                                   
     14     (2,1,7)               0.0000000      UZF14                                   
     15     (2,1,8)               0.0000000      UZF15                                   
     16     (2,1,9)               0.0000000      UZF16                                   
     17     (3,1,2)               0.0000000      UZF17                                   
     18     (3,1,3)               0.0000000      UZF18                                   
     19     (3,1,4)               0.0000000      UZF19                                   
     20     (3,1,5)               0.0000000      UZF20                                   
     21     (3,1,6)               0.0000000      UZF21                                   
     22     (3,1,7)               0.0000000      UZF22                                   
     23     (3,1,8)               0.0000000      UZF23                                   
     24     (3,1,9)               0.0000000      UZF24                                   
 ----------------------------------------------------------------------------------------




 UZF-GWET PACKAGE (UZF-1) FLOW RATES   PERIOD      5   STEP       37
 ----------------------------------------------------------------------------------------
   NUMBER   CELLID                    RATE       NAME                                    
 ----------------------------------------------------------------------------------------
     1      (1,1,2)               0.0000000      UZF01                                   
     2      (1,1,3)               0.0000000      UZF02                                   
     3      (1,1,4)               0.0000000      UZF03                                   
     4      (1,1,5)               0.0000000      UZF04                                   
     5      (1,1,6)               0.0000000      UZF05                                   
     6      (1,1,7)               0.0000000      UZF06                                   
     7      (1,1,8)               0.0000000      UZF07                                   
     8      (1,1,9)               0.0000000      UZF08                                   
     9      (2,1,2)               0.0000000      UZF08                                   
     10     (2,1,3)               0.0000000      UZF10                                   
     11     (2,1,4)               0.0000000      UZF11                                   
     12     (2,1,5)               0.0000000      UZF12                                   
     13     (2,1,6)               0.0000000      UZF13                                   
     14     (2,1,7)               0.0000000      UZF14                                   
     15     (2,1,8)               0.0000000      UZF15                                   
     16     (2,1,9)               0.0000000      UZF16                                   
     17     (3,1,2)               0.0000000      UZF17                                   
     18     (3,1,3)               0.0000000      UZF18                                   
     19     (3,1,4)               0.0000000      UZF19                                   
     20     (3,1,5)               0.0000000      UZF20                                   
     21     (3,1,6)               0.0000000      UZF21                                   
     22     (3,1,7)               0.0000000      UZF22                                   
     23     (3,1,8)               0.0000000      UZF23                                   
     24     (3,1,9)               0.0000000      UZF24                                   
 ----------------------------------------------------------------------------------------




 UZF-1 PACKAGE - SUMMARY OF FLOWS FOR EACH CONTROL VOLUME   PERIOD      5   STEP       37
 ----------------------------------------------------------------------------------------------------------------------------------------------------
                                                                                                                                           PERCENT   
   NUMBER   CELLID                  INFLOW      OUTFLOW        GWF      INFILTRATION   REJ INF        UZET       STORAGE      IN - OUT    DIFFERENCE 
 ----------------------------------------------------------------------------------------------------------------------------------------------------
     1      (1,1,2)               0.0000      -1.1760       0.0000       0.0000       0.0000       0.0000       1.1760       2.33147E-14  1.98249E-12
     2      (1,1,3)               0.0000      -1.1760       0.0000       0.0000       0.0000       0.0000       1.1760       2.33147E-14  1.98249E-12
     3      (1,1,4)               0.0000      -1.1760       0.0000       0.0000       0.0000       0.0000       1.1760       2.33147E-14  1.98249E-12
     4      (1,1,5)               0.0000      -1.1760       0.0000       0.0000       0.0000       0.0000       1.1760       2.33147E-14  1.98249E-12
     5      (1,1,6)               0.0000      -1.1760       0.0000       0.0000       0.0000       0.0000       1.1760       2.33147E-14  1.98249E-12
     6      (1,1,7)               0.0000      -1.1760       0.0000       0.0000       0.0000       0.0000       1.1760       2.33147E-14  1.98249E-12
     7      (1,1,8)               0.0000      -1.1760       0.0000       0.0000       0.0000       0.0000       1.1760       2.33147E-14  1.98249E-12
     8      (1,1,9)               0.0000      -1.1760       0.0000       0.0000       0.0000       0.0000       1.1760       2.33147E-14  1.98249E-12
     9      (2,1,2)               1.1760      -6.4162       0.0000       0.0000       0.0000      -3.14865E-02  5.2720       3.42299E-04  5.30871E-03
     10     (2,1,3)               1.1760      -6.4162       0.0000       0.0000       0.0000      -3.14865E-02  5.2720       3.42299E-04  5.30871E-03
     11     (2,1,4)               1.1760      -6.4162       0.0000       0.0000       0.0000      -3.14865E-02  5.2720       3.42299E-04  5.30871E-03
     12     (2,1,5)               1.1760      -6.4162       0.0000       0.0000       0.0000      -3.14865E-02  5.2720       3.42299E-04  5.30871E-03
     13     (2,1,6)               1.1760      -6.4162       0.0000       0.0000       0.0000      -3.14865E-02  5.2720       3.42299E-04  5.30871E-03
     14     (2,1,7)               1.1760      -6.4162       0.0000       0.0000       0.0000      -3.14865E-02  5.2720       3.42299E-04  5.30871E-03
     15     (2,1,8)               1.1760      -6.4162       0.0000       0.0000       0.0000      -3.14865E-02  5.2720       3.42299E-04  5.30871E-03
     16     (2,1,9)               1.1760      -6.4162       0.0000       0.0000       0.0000      -3.14865E-02  5.2720       3.42299E-04  5.30871E-03
     17     (3,1,2)               6.4162       0.0000      -9.9193       0.0000       0.0000       0.0000       3.5031       9.69945E-07  9.77832E-06
     18     (3,1,3)               6.4162       0.0000      -9.8714       0.0000       0.0000       0.0000       3.4551       9.69945E-07  9.82585E-06
     19     (3,1,4)               6.4162       0.0000      -9.8671       0.0000       0.0000       0.0000       3.4509       9.69945E-07  9.83011E-06
     20     (3,1,5)               6.4162       0.0000      -9.8755       0.0000       0.0000       0.0000       3.4593       9.69945E-07  9.82168E-06
     21     (3,1,6)               6.4162       0.0000      -9.8755       0.0000       0.0000       0.0000       3.4593       9.69945E-07  9.82168E-06
     22     (3,1,7)               6.4162       0.0000      -9.8671       0.0000       0.0000       0.0000       3.4509       9.69945E-07  9.83011E-06
     23     (3,1,8)               6.4162       0.0000      -9.8714       0.0000       0.0000       0.0000       3.4551       9.69945E-07  9.82585E-06
     24     (3,1,9)               6.4162       0.0000      -9.9193       0.0000       0.0000       0.0000       3.5031       9.69944E-07  9.77832E-06
 ----------------------------------------------------------------------------------------------------------------------------------------------------


1
  HEAD IN LAYER   1 AT END OF TIME STEP  37 IN STRESS PERIOD    5
  ---------------------------------------------------------------------------

            1           2           3           4           5           6           7           8           9          10
 ........................................................................................................................
   1   -25.00      -24.92      -24.86      -24.82      -24.80      -24.80      -24.82      -24.86      -24.92      -25.00    
1
  HEAD IN LAYER   2 AT END OF TIME STEP  37 IN STRESS PERIOD    5
  ---------------------------------------------------------------------------

            1           2           3           4           5           6           7           8           9          10
 ........................................................................................................................
   1   -25.00      -24.92      -24.86      -24.82      -24.80      -24.80      -24.82      -24.86      -24.92      -25.00    
1
  HEAD IN LAYER   3 AT END OF TIME STEP  37 IN STRESS PERIOD    5
  ---------------------------------------------------------------------------

            1           2           3           4           5           6           7           8           9          10
 ........................................................................................................................
   1   -25.00      -24.92      -24.86      -24.82      -24.80      -24.80      -24.82      -24.86      -24.92      -25.00    

 HEAD WILL BE SAVED ON UNIT 1022 AT END OF TIME STEP   37, STRESS PERIOD    5


  UZF-1 BUDGET FOR ENTIRE MODEL AT END OF TIME STEP   37, STRESS PERIOD   5
  ------------------------------------------------------------------------------

     CUMULATIVE UZF-1      L**3       RATES FOR THIS TIME STEP      L**3/T
     ------------------                 ------------------------

           IN:                                      IN:
           ---                                      ---
                 GWF =           0.0000                   GWF =           0.0000
        INFILTRATION =      480000.0000          INFILTRATION =           0.0000
             REJ-INF =           0.0000               REJ-INF =           0.0000
                UZET =           0.0000                  UZET =           0.0000
             STORAGE =      478481.3838               STORAGE =          79.3213

            TOTAL IN =      958481.3838              TOTAL IN =          79.3213

          OUT:                                     OUT:
          ----                                     ----
                 GWF =       62647.1655                   GWF =          79.0666
        INFILTRATION =           0.0000          INFILTRATION =           0.0000
             REJ-INF =           0.0000               REJ-INF =           0.0000
                UZET =         895.9203                  UZET =           0.2519
             STORAGE =      894878.6925               STORAGE =           0.0000

           TOTAL OUT =      958421.7783             TOTAL OUT =          79.3185

            IN - OUT =          59.6055              IN - OUT =       2.7462E-03

 PERCENT DISCREPANCY =           0.01     PERCENT DISCREPANCY =           0.00



  VOLUME BUDGET FOR ENTIRE MODEL AT END OF TIME STEP   37, STRESS PERIOD   5
  ---------------------------------------------------------------------------------------------------

     CUMULATIVE VOLUME      L**3       RATES FOR THIS TIME STEP      L**3/T          PACKAGE NAME    
     ------------------                 ------------------------                     ----------------

           IN:                                      IN:
           ---                                      ---
              STO-SS =       4.5983E-02                STO-SS =       1.1167E-03     STORAGE         
              STO-SY =         178.5422                STO-SY =           4.3343     STORAGE         
                 CHD =           0.0000                   CHD =           0.0000     CHD-1           
           UZF-GWRCH =       62647.1655             UZF-GWRCH =          79.0666     UZF-1           
             UZF-GWD =           0.0000               UZF-GWD =           0.0000     UZF-1           
            UZF-GWET =           0.0000              UZF-GWET =           0.0000     UZF-1           

            TOTAL IN =       62825.7537              TOTAL IN =          83.4020

          OUT:                                     OUT:
          ----                                     ----
              STO-SS =           6.2557                STO-SS =           0.0000     STORAGE         
              STO-SY =       24610.3617                STO-SY =           0.0000     STORAGE         
                 CHD =       38209.0502                   CHD =          83.4022     CHD-1           
           UZF-GWRCH =           0.0000             UZF-GWRCH =           0.0000     UZF-1           
             UZF-GWD =           0.0000               UZF-GWD =           0.0000     UZF-1           
            UZF-GWET =           0.0000              UZF-GWET =           0.0000     UZF-1           

           TOTAL OUT =       62825.6676             TOTAL OUT =          83.4022

            IN - OUT =       8.6136E-02              IN - OUT =      -1.5873E-04

 PERCENT DISCREPANCY =           0.00     PERCENT DISCREPANCY =          -0.00




         TIME SUMMARY AT END OF TIME STEP   37 IN STRESS PERIOD    5
                    SECONDS     MINUTES      HOURS       DAYS        YEARS
                    -----------------------------------------------------------
   TIME STEP LENGTH 3.45600E+06  57600.      960.00      40.000     0.10951    
 STRESS PERIOD TIME 1.27872E+08 2.13120E+06  35520.      1480.0      4.0520    
         TOTAL TIME 1.76256E+08 2.93760E+06  48960.      2040.0      5.5852    


end timestep


start timestep kper="5" kstp="38" mode="normal"

 UBDSV1 SAVING     FLOW-JA-FACE ON UNIT   1020 AT TIME STEP     38, STRESS PERIOD      5
 UBDSV06 SAVING     FLOW-JA-FACE IN MODEL GWF_1            PACKAGE UZF-1           CONNECTED TO MODEL GWF_1            PACKAGE UZF-1            ON UNIT   1014 AT TIME STEP     38, STRESS PERIOD      5
 UBDSV06 SAVING              GWF IN MODEL GWF_1            PACKAGE UZF-1           CONNECTED TO MODEL GWF_1            PACKAGE GWF_1            ON UNIT   1014 AT TIME STEP     38, STRESS PERIOD      5
 UBDSV06 SAVING     INFILTRATION IN MODEL GWF_1            PACKAGE UZF-1           CONNECTED TO MODEL GWF_1            PACKAGE UZF-1            ON UNIT   1014 AT TIME STEP     38, STRESS PERIOD      5
 UBDSV06 SAVING          REJ-INF IN MODEL GWF_1            PACKAGE UZF-1           CONNECTED TO MODEL GWF_1            PACKAGE UZF-1            ON UNIT   1014 AT TIME STEP     38, STRESS PERIOD      5
 UBDSV06 SAVING             UZET IN MODEL GWF_1            PACKAGE UZF-1           CONNECTED TO MODEL GWF_1            PACKAGE UZF-1            ON UNIT   1014 AT TIME STEP     38, STRESS PERIOD      5
 UBDSV06 SAVING          STORAGE IN MODEL GWF_1            PACKAGE UZF-1           CONNECTED TO MODEL GWF_1            PACKAGE UZF-1            ON UNIT   1014 AT TIME STEP     38, STRESS PERIOD      5

 CHD PACKAGE (CHD-1) FLOW RATES   PERIOD      5   STEP       38
 -----------------------------------------------
   NUMBER   CELLID                    RATE      
 -----------------------------------------------
     1      (3,1,1)              -41.350936     
     2      (3,1,10)             -41.350936     
 -----------------------------------------------




 UZF-GWRCH PACKAGE (UZF-1) FLOW RATES   PERIOD      5   STEP       38
 ----------------------------------------------------------------------------------------
   NUMBER   CELLID                    RATE       NAME                                    
 ----------------------------------------------------------------------------------------
     1      (1,1,2)               0.0000000      UZF01                                   
     2      (1,1,3)               0.0000000      UZF02                                   
     3      (1,1,4)               0.0000000      UZF03                                   
     4      (1,1,5)               0.0000000      UZF04                                   
     5      (1,1,6)               0.0000000      UZF05                                   
     6      (1,1,7)               0.0000000      UZF06                                   
     7      (1,1,8)               0.0000000      UZF07                                   
     8      (1,1,9)               0.0000000      UZF08                                   
     9      (2,1,2)               0.0000000      UZF08                                   
     10     (2,1,3)               0.0000000      UZF10                                   
     11     (2,1,4)               0.0000000      UZF11                                   
     12     (2,1,5)               0.0000000      UZF12                                   
     13     (2,1,6)               0.0000000      UZF13                                   
     14     (2,1,7)               0.0000000      UZF14                                   
     15     (2,1,8)               0.0000000      UZF15                                   
     16     (2,1,9)               0.0000000      UZF16                                   
     17     (3,1,2)               9.8956800      UZF17                                   
     18     (3,1,3)               9.8733106      UZF18                                   
     19     (3,1,4)               9.8688839      UZF19                                   
     20     (3,1,5)               9.8701572      UZF20                                   
     21     (3,1,6)               9.8701572      UZF21                                   
     22     (3,1,7)               9.8688839      UZF22                                   
     23     (3,1,8)               9.8733106      UZF23                                   
     24     (3,1,9)               9.8956800      UZF24                                   
 ----------------------------------------------------------------------------------------




 UZF-GWD PACKAGE (UZF-1) FLOW RATES   PERIOD      5   STEP       38
 ----------------------------------------------------------------------------------------
   NUMBER   CELLID                    RATE       NAME                                    
 ----------------------------------------------------------------------------------------
     1      (1,1,2)               0.0000000      UZF01                                   
     2      (1,1,3)               0.0000000      UZF02                                   
     3      (1,1,4)               0.0000000      UZF03                                   
     4      (1,1,5)               0.0000000      UZF04                                   
     5      (1,1,6)               0.0000000      UZF05                                   
     6      (1,1,7)               0.0000000      UZF06                                   
     7      (1,1,8)               0.0000000      UZF07                                   
     8      (1,1,9)               0.0000000      UZF08                                   
     9      (2,1,2)               0.0000000      UZF08                                   
     10     (2,1,3)               0.0000000      UZF10                                   
     11     (2,1,4)               0.0000000      UZF11                                   
     12     (2,1,5)               0.0000000      UZF12                                   
     13     (2,1,6)               0.0000000      UZF13                                   
     14     (2,1,7)               0.0000000      UZF14                                   
     15     (2,1,8)               0.0000000      UZF15                                   
     16     (2,1,9)               0.0000000      UZF16                                   
     17     (3,1,2)               0.0000000      UZF17                                   
     18     (3,1,3)               0.0000000      UZF18                                   
     19     (3,1,4)               0.0000000      UZF19                                   
     20     (3,1,5)               0.0000000      UZF20                                   
     21     (3,1,6)               0.0000000      UZF21                                   
     22     (3,1,7)               0.0000000      UZF22                                   
     23     (3,1,8)               0.0000000      UZF23                                   
     24     (3,1,9)               0.0000000      UZF24                                   
 ----------------------------------------------------------------------------------------




 UZF-GWET PACKAGE (UZF-1) FLOW RATES   PERIOD      5   STEP       38
 ----------------------------------------------------------------------------------------
   NUMBER   CELLID                    RATE       NAME                                    
 ----------------------------------------------------------------------------------------
     1      (1,1,2)               0.0000000      UZF01                                   
     2      (1,1,3)               0.0000000      UZF02                                   
     3      (1,1,4)               0.0000000      UZF03                                   
     4      (1,1,5)               0.0000000      UZF04                                   
     5      (1,1,6)               0.0000000      UZF05                                   
     6      (1,1,7)               0.0000000      UZF06                                   
     7      (1,1,8)               0.0000000      UZF07                                   
     8      (1,1,9)               0.0000000      UZF08                                   
     9      (2,1,2)               0.0000000      UZF08                                   
     10     (2,1,3)               0.0000000      UZF10                                   
     11     (2,1,4)               0.0000000      UZF11                                   
     12     (2,1,5)               0.0000000      UZF12                                   
     13     (2,1,6)               0.0000000      UZF13                                   
     14     (2,1,7)               0.0000000      UZF14                                   
     15     (2,1,8)               0.0000000      UZF15                                   
     16     (2,1,9)               0.0000000      UZF16                                   
     17     (3,1,2)               0.0000000      UZF17                                   
     18     (3,1,3)               0.0000000      UZF18                                   
     19     (3,1,4)               0.0000000      UZF19                                   
     20     (3,1,5)               0.0000000      UZF20                                   
     21     (3,1,6)               0.0000000      UZF21                                   
     22     (3,1,7)               0.0000000      UZF22                                   
     23     (3,1,8)               0.0000000      UZF23                                   
     24     (3,1,9)               0.0000000      UZF24                                   
 ----------------------------------------------------------------------------------------




 UZF-1 PACKAGE - SUMMARY OF FLOWS FOR EACH CONTROL VOLUME   PERIOD      5   STEP       38
 ----------------------------------------------------------------------------------------------------------------------------------------------------
                                                                                                                                           PERCENT   
   NUMBER   CELLID                  INFLOW      OUTFLOW        GWF      INFILTRATION   REJ INF        UZET       STORAGE      IN - OUT    DIFFERENCE 
 ----------------------------------------------------------------------------------------------------------------------------------------------------
     1      (1,1,2)               0.0000      -1.1760       0.0000       0.0000       0.0000       0.0000       1.1760      -4.61853E-14 -3.92723E-12
     2      (1,1,3)               0.0000      -1.1760       0.0000       0.0000       0.0000       0.0000       1.1760      -4.61853E-14 -3.92723E-12
     3      (1,1,4)               0.0000      -1.1760       0.0000       0.0000       0.0000       0.0000       1.1760      -4.61853E-14 -3.92723E-12
     4      (1,1,5)               0.0000      -1.1760       0.0000       0.0000       0.0000       0.0000       1.1760      -4.61853E-14 -3.92723E-12
     5      (1,1,6)               0.0000      -1.1760       0.0000       0.0000       0.0000       0.0000       1.1760      -4.61853E-14 -3.92723E-12
     6      (1,1,7)               0.0000      -1.1760       0.0000       0.0000       0.0000       0.0000       1.1760      -4.61853E-14 -3.92723E-12
     7      (1,1,8)               0.0000      -1.1760       0.0000       0.0000       0.0000       0.0000       1.1760      -4.61853E-14 -3.92723E-12
     8      (1,1,9)               0.0000      -1.1760       0.0000       0.0000       0.0000       0.0000       1.1760      -4.61853E-14 -3.92723E-12
     9      (2,1,2)               1.1760      -6.4137       0.0000       0.0000       0.0000      -3.04167E-02  5.2684       3.44374E-04  5.34388E-03
     10     (2,1,3)               1.1760      -6.4137       0.0000       0.0000       0.0000      -3.04167E-02  5.2684       3.44374E-04  5.34388E-03
     11     (2,1,4)               1.1760      -6.4137       0.0000       0.0000       0.0000      -3.04167E-02  5.2684       3.44374E-04  5.34388E-03
     12     (2,1,5)               1.1760      -6.4137       0.0000       0.0000       0.0000      -3.04167E-02  5.2684       3.44374E-04  5.34388E-03
     13     (2,1,6)               1.1760      -6.4137       0.0000       0.0000       0.0000      -3.04167E-02  5.2684       3.44374E-04  5.34388E-03
     14     (2,1,7)               1.1760      -6.4137       0.0000       0.0000       0.0000      -3.04167E-02  5.2684       3.44374E-04  5.34388E-03
     15     (2,1,8)               1.1760      -6.4137       0.0000       0.0000       0.0000      -3.04167E-02  5.2684       3.44374E-04  5.34388E-03
     16     (2,1,9)               1.1760      -6.4137       0.0000       0.0000       0.0000      -3.04167E-02  5.2684       3.44374E-04  5.34388E-03
     17     (3,1,2)               6.4137       0.0000      -9.8957       0.0000       0.0000       0.0000       3.4820       9.55617E-07  9.65691E-06
     18     (3,1,3)               6.4137       0.0000      -9.8733       0.0000       0.0000       0.0000       3.4596       9.55617E-07  9.67879E-06
     19     (3,1,4)               6.4137       0.0000      -9.8689       0.0000       0.0000       0.0000       3.4552       9.55617E-07  9.68313E-06
     20     (3,1,5)               6.4137       0.0000      -9.8702       0.0000       0.0000       0.0000       3.4565       9.55617E-07  9.68188E-06
     21     (3,1,6)               6.4137       0.0000      -9.8702       0.0000       0.0000       0.0000       3.4565       9.55617E-07  9.68188E-06
     22     (3,1,7)               6.4137       0.0000      -9.8689       0.0000       0.0000       0.0000       3.4552       9.55617E-07  9.68313E-06
     23     (3,1,8)               6.4137       0.0000      -9.8733       0.0000       0.0000       0.0000       3.4596       9.55617E-07  9.67879E-06
     24     (3,1,9)               6.4137       0.0000      -9.8957       0.0000       0.0000       0.0000       3.4820       9.55617E-07  9.65691E-06
 ----------------------------------------------------------------------------------------------------------------------------------------------------


1
  HEAD IN LAYER   1 AT END OF TIME STEP  38 IN STRESS PERIOD    5
  ---------------------------------------------------------------------------

            1           2           3           4           5           6           7           8           9          10
 ........................................................................................................................
   1   -25.00      -24.92      -24.86      -24.82      -24.80      -24.80      -24.82      -24.86      -24.92      -25.00    
1
  HEAD IN LAYER   2 AT END OF TIME STEP  38 IN STRESS PERIOD    5
  ---------------------------------------------------------------------------

            1           2           3           4           5           6           7           8           9          10
 ........................................................................................................................
   1   -25.00      -24.92      -24.86      -24.82      -24.80      -24.80      -24.82      -24.86      -24.92      -25.00    
1
  HEAD IN LAYER   3 AT END OF TIME STEP  38 IN STRESS PERIOD    5
  ---------------------------------------------------------------------------

            1           2           3           4           5           6           7           8           9          10
 ........................................................................................................................
   1   -25.00      -24.92      -24.86      -24.82      -24.80      -24.80      -24.82      -24.86      -24.92      -25.00    

 HEAD WILL BE SAVED ON UNIT 1022 AT END OF TIME STEP   38, STRESS PERIOD    5


  UZF-1 BUDGET FOR ENTIRE MODEL AT END OF TIME STEP   38, STRESS PERIOD   5
  ------------------------------------------------------------------------------

     CUMULATIVE UZF-1      L**3       RATES FOR THIS TIME STEP      L**3/T
     ------------------                 ------------------------

           IN:                                      IN:
           ---                                      ---
                 GWF =           0.0000                   GWF =           0.0000
        INFILTRATION =      480000.0000          INFILTRATION =           0.0000
             REJ-INF =           0.0000               REJ-INF =           0.0000
                UZET =           0.0000                  UZET =           0.0000
             STORAGE =      481651.8702               STORAGE =          79.2622

            TOTAL IN =      961651.8702              TOTAL IN =          79.2622

          OUT:                                     OUT:
          ----                                     ----
                 GWF =       65807.8080                   GWF =          79.0161
        INFILTRATION =           0.0000          INFILTRATION =           0.0000
             REJ-INF =           0.0000               REJ-INF =           0.0000
                UZET =         905.6536                  UZET =           0.2433
             STORAGE =      894878.6925               STORAGE =           0.0000

           TOTAL OUT =      961592.1542             TOTAL OUT =          79.2594

            IN - OUT =          59.7160              IN - OUT =       2.7626E-03

 PERCENT DISCREPANCY =           0.01     PERCENT DISCREPANCY =           0.00



  VOLUME BUDGET FOR ENTIRE MODEL AT END OF TIME STEP   38, STRESS PERIOD   5
  ---------------------------------------------------------------------------------------------------

     CUMULATIVE VOLUME      L**3       RATES FOR THIS TIME STEP      L**3/T          PACKAGE NAME    
     ------------------                 ------------------------                     ----------------

           IN:                                      IN:
           ---                                      ---
              STO-SS =       8.4001E-02                STO-SS =       9.5044E-04     STORAGE         
              STO-SY =         325.9309                STO-SY =           3.6847     STORAGE         
                 CHD =           0.0000                   CHD =           0.0000     CHD-1           
           UZF-GWRCH =       65807.8080             UZF-GWRCH =          79.0161     UZF-1           
             UZF-GWD =           0.0000               UZF-GWD =           0.0000     UZF-1           
            UZF-GWET =           0.0000              UZF-GWET =           0.0000     UZF-1           

            TOTAL IN =       66133.8229              TOTAL IN =          82.7017

          OUT:                                     OUT:
          ----                                     ----
              STO-SS =           6.2557                STO-SS =           0.0000     STORAGE         
              STO-SY =       24610.3617                STO-SY =           0.0000     STORAGE         
                 CHD =       41517.1251                   CHD =          82.7019     CHD-1           
           UZF-GWRCH =           0.0000             UZF-GWRCH =           0.0000     UZF-1           
             UZF-GWD =           0.0000               UZF-GWD =           0.0000     UZF-1           
            UZF-GWET =           0.0000              UZF-GWET =           0.0000     UZF-1           

           TOTAL OUT =       66133.7425             TOTAL OUT =          82.7019

            IN - OUT =       8.0489E-02              IN - OUT =      -1.4117E-04

 PERCENT DISCREPANCY =           0.00     PERCENT DISCREPANCY =          -0.00




         TIME SUMMARY AT END OF TIME STEP   38 IN STRESS PERIOD    5
                    SECONDS     MINUTES      HOURS       DAYS        YEARS
                    -----------------------------------------------------------
   TIME STEP LENGTH 3.45600E+06  57600.      960.00      40.000     0.10951    
 STRESS PERIOD TIME 1.31328E+08 2.18880E+06  36480.      1520.0      4.1615    
         TOTAL TIME 1.79712E+08 2.99520E+06  49920.      2080.0      5.6947    


end timestep


start timestep kper="5" kstp="39" mode="normal"

 UBDSV1 SAVING     FLOW-JA-FACE ON UNIT   1020 AT TIME STEP     39, STRESS PERIOD      5
 UBDSV06 SAVING     FLOW-JA-FACE IN MODEL GWF_1            PACKAGE UZF-1           CONNECTED TO MODEL GWF_1            PACKAGE UZF-1            ON UNIT   1014 AT TIME STEP     39, STRESS PERIOD      5
 UBDSV06 SAVING              GWF IN MODEL GWF_1            PACKAGE UZF-1           CONNECTED TO MODEL GWF_1            PACKAGE GWF_1            ON UNIT   1014 AT TIME STEP     39, STRESS PERIOD      5
 UBDSV06 SAVING     INFILTRATION IN MODEL GWF_1            PACKAGE UZF-1           CONNECTED TO MODEL GWF_1            PACKAGE UZF-1            ON UNIT   1014 AT TIME STEP     39, STRESS PERIOD      5
 UBDSV06 SAVING          REJ-INF IN MODEL GWF_1            PACKAGE UZF-1           CONNECTED TO MODEL GWF_1            PACKAGE UZF-1            ON UNIT   1014 AT TIME STEP     39, STRESS PERIOD      5
 UBDSV06 SAVING             UZET IN MODEL GWF_1            PACKAGE UZF-1           CONNECTED TO MODEL GWF_1            PACKAGE UZF-1            ON UNIT   1014 AT TIME STEP     39, STRESS PERIOD      5
 UBDSV06 SAVING          STORAGE IN MODEL GWF_1            PACKAGE UZF-1           CONNECTED TO MODEL GWF_1            PACKAGE UZF-1            ON UNIT   1014 AT TIME STEP     39, STRESS PERIOD      5

 CHD PACKAGE (CHD-1) FLOW RATES   PERIOD      5   STEP       39
 -----------------------------------------------
   NUMBER   CELLID                    RATE      
 -----------------------------------------------
     1      (3,1,1)              -41.103500     
     2      (3,1,10)             -41.103500     
 -----------------------------------------------




 UZF-GWRCH PACKAGE (UZF-1) FLOW RATES   PERIOD      5   STEP       39
 ----------------------------------------------------------------------------------------
   NUMBER   CELLID                    RATE       NAME                                    
 ----------------------------------------------------------------------------------------
     1      (1,1,2)               0.0000000      UZF01                                   
     2      (1,1,3)               0.0000000      UZF02                                   
     3      (1,1,4)               0.0000000      UZF03                                   
     4      (1,1,5)               0.0000000      UZF04                                   
     5      (1,1,6)               0.0000000      UZF05                                   
     6      (1,1,7)               0.0000000      UZF06                                   
     7      (1,1,8)               0.0000000      UZF07                                   
     8      (1,1,9)               0.0000000      UZF08                                   
     9      (2,1,2)               0.0000000      UZF08                                   
     10     (2,1,3)               0.0000000      UZF10                                   
     11     (2,1,4)               0.0000000      UZF11                                   
     12     (2,1,5)               0.0000000      UZF12                                   
     13     (2,1,6)               0.0000000      UZF13                                   
     14     (2,1,7)               0.0000000      UZF14                                   
     15     (2,1,8)               0.0000000      UZF15                                   
     16     (2,1,9)               0.0000000      UZF16                                   
     17     (3,1,2)               9.9070560      UZF17                                   
     18     (3,1,3)               9.8841260      UZF18                                   
     19     (3,1,4)               9.8736206      UZF19                                   
     20     (3,1,5)               9.8702837      UZF20                                   
     21     (3,1,6)               9.8702837      UZF21                                   
     22     (3,1,7)               9.8736206      UZF22                                   
     23     (3,1,8)               9.8841260      UZF23                                   
     24     (3,1,9)               9.9070560      UZF24                                   
 ----------------------------------------------------------------------------------------




 UZF-GWD PACKAGE (UZF-1) FLOW RATES   PERIOD      5   STEP       39
 ----------------------------------------------------------------------------------------
   NUMBER   CELLID                    RATE       NAME                                    
 ----------------------------------------------------------------------------------------
     1      (1,1,2)               0.0000000      UZF01                                   
     2      (1,1,3)               0.0000000      UZF02                                   
     3      (1,1,4)               0.0000000      UZF03                                   
     4      (1,1,5)               0.0000000      UZF04                                   
     5      (1,1,6)               0.0000000      UZF05                                   
     6      (1,1,7)               0.0000000      UZF06                                   
     7      (1,1,8)               0.0000000      UZF07                                   
     8      (1,1,9)               0.0000000      UZF08                                   
     9      (2,1,2)               0.0000000      UZF08                                   
     10     (2,1,3)               0.0000000      UZF10                                   
     11     (2,1,4)               0.0000000      UZF11                                   
     12     (2,1,5)               0.0000000      UZF12                                   
     13     (2,1,6)               0.0000000      UZF13                                   
     14     (2,1,7)               0.0000000      UZF14                                   
     15     (2,1,8)               0.0000000      UZF15                                   
     16     (2,1,9)               0.0000000      UZF16                                   
     17     (3,1,2)               0.0000000      UZF17                                   
     18     (3,1,3)               0.0000000      UZF18                                   
     19     (3,1,4)               0.0000000      UZF19                                   
     20     (3,1,5)               0.0000000      UZF20                                   
     21     (3,1,6)               0.0000000      UZF21                                   
     22     (3,1,7)               0.0000000      UZF22                                   
     23     (3,1,8)               0.0000000      UZF23                                   
     24     (3,1,9)               0.0000000      UZF24                                   
 ----------------------------------------------------------------------------------------




 UZF-GWET PACKAGE (UZF-1) FLOW RATES   PERIOD      5   STEP       39
 ----------------------------------------------------------------------------------------
   NUMBER   CELLID                    RATE       NAME                                    
 ----------------------------------------------------------------------------------------
     1      (1,1,2)               0.0000000      UZF01                                   
     2      (1,1,3)               0.0000000      UZF02                                   
     3      (1,1,4)               0.0000000      UZF03                                   
     4      (1,1,5)               0.0000000      UZF04                                   
     5      (1,1,6)               0.0000000      UZF05                                   
     6      (1,1,7)               0.0000000      UZF06                                   
     7      (1,1,8)               0.0000000      UZF07                                   
     8      (1,1,9)               0.0000000      UZF08                                   
     9      (2,1,2)               0.0000000      UZF08                                   
     10     (2,1,3)               0.0000000      UZF10                                   
     11     (2,1,4)               0.0000000      UZF11                                   
     12     (2,1,5)               0.0000000      UZF12                                   
     13     (2,1,6)               0.0000000      UZF13                                   
     14     (2,1,7)               0.0000000      UZF14                                   
     15     (2,1,8)               0.0000000      UZF15                                   
     16     (2,1,9)               0.0000000      UZF16                                   
     17     (3,1,2)               0.0000000      UZF17                                   
     18     (3,1,3)               0.0000000      UZF18                                   
     19     (3,1,4)               0.0000000      UZF19                                   
     20     (3,1,5)               0.0000000      UZF20                                   
     21     (3,1,6)               0.0000000      UZF21                                   
     22     (3,1,7)               0.0000000      UZF22                                   
     23     (3,1,8)               0.0000000      UZF23                                   
     24     (3,1,9)               0.0000000      UZF24                                   
 ----------------------------------------------------------------------------------------




 UZF-1 PACKAGE - SUMMARY OF FLOWS FOR EACH CONTROL VOLUME   PERIOD      5   STEP       39
 ----------------------------------------------------------------------------------------------------------------------------------------------------
                                                                                                                                           PERCENT   
   NUMBER   CELLID                  INFLOW      OUTFLOW        GWF      INFILTRATION   REJ INF        UZET       STORAGE      IN - OUT    DIFFERENCE 
 ----------------------------------------------------------------------------------------------------------------------------------------------------
     1      (1,1,2)               0.0000      -1.1760       0.0000       0.0000       0.0000       0.0000       1.1760       2.33147E-14  1.98249E-12
     2      (1,1,3)               0.0000      -1.1760       0.0000       0.0000       0.0000       0.0000       1.1760       2.33147E-14  1.98249E-12
     3      (1,1,4)               0.0000      -1.1760       0.0000       0.0000       0.0000       0.0000       1.1760       2.33147E-14  1.98249E-12
     4      (1,1,5)               0.0000      -1.1760       0.0000       0.0000       0.0000       0.0000       1.1760       2.33147E-14  1.98249E-12
     5      (1,1,6)               0.0000      -1.1760       0.0000       0.0000       0.0000       0.0000       1.1760       2.33147E-14  1.98249E-12
     6      (1,1,7)               0.0000      -1.1760       0.0000       0.0000       0.0000       0.0000       1.1760       2.33147E-14  1.98249E-12
     7      (1,1,8)               0.0000      -1.1760       0.0000       0.0000       0.0000       0.0000       1.1760       2.33147E-14  1.98249E-12
     8      (1,1,9)               0.0000      -1.1760       0.0000       0.0000       0.0000       0.0000       1.1760       2.33147E-14  1.98249E-12
     9      (2,1,2)               1.1760      -6.4111       0.0000       0.0000       0.0000      -2.93469E-02  5.2648       3.46023E-04  5.37247E-03
     10     (2,1,3)               1.1760      -6.4111       0.0000       0.0000       0.0000      -2.93469E-02  5.2648       3.46023E-04  5.37247E-03
     11     (2,1,4)               1.1760      -6.4111       0.0000       0.0000       0.0000      -2.93469E-02  5.2648       3.46023E-04  5.37247E-03
     12     (2,1,5)               1.1760      -6.4111       0.0000       0.0000       0.0000      -2.93469E-02  5.2648       3.46023E-04  5.37247E-03
     13     (2,1,6)               1.1760      -6.4111       0.0000       0.0000       0.0000      -2.93469E-02  5.2648       3.46023E-04  5.37247E-03
     14     (2,1,7)               1.1760      -6.4111       0.0000       0.0000       0.0000      -2.93469E-02  5.2648       3.46023E-04  5.37247E-03
     15     (2,1,8)               1.1760      -6.4111       0.0000       0.0000       0.0000      -2.93469E-02  5.2648       3.46023E-04  5.37247E-03
     16     (2,1,9)               1.1760      -6.4111       0.0000       0.0000       0.0000      -2.93469E-02  5.2648       3.46023E-04  5.37247E-03
     17     (3,1,2)               6.4111       0.0000      -9.9071       0.0000       0.0000       0.0000       3.4959       9.55333E-07  9.64296E-06
     18     (3,1,3)               6.4111       0.0000      -9.8841       0.0000       0.0000       0.0000       3.4730       9.55333E-07  9.66533E-06
     19     (3,1,4)               6.4111       0.0000      -9.8736       0.0000       0.0000       0.0000       3.4625       9.55333E-07  9.67561E-06
     20     (3,1,5)               6.4111       0.0000      -9.8703       0.0000       0.0000       0.0000       3.4591       9.55333E-07  9.67888E-06
     21     (3,1,6)               6.4111       0.0000      -9.8703       0.0000       0.0000       0.0000       3.4591       9.55333E-07  9.67888E-06
     22     (3,1,7)               6.4111       0.0000      -9.8736       0.0000       0.0000       0.0000       3.4625       9.55333E-07  9.67561E-06
     23     (3,1,8)               6.4111       0.0000      -9.8841       0.0000       0.0000       0.0000       3.4730       9.55333E-07  9.66533E-06
     24     (3,1,9)               6.4111       0.0000      -9.9071       0.0000       0.0000       0.0000       3.4959       9.55333E-07  9.64296E-06
 ----------------------------------------------------------------------------------------------------------------------------------------------------


1
  HEAD IN LAYER   1 AT END OF TIME STEP  39 IN STRESS PERIOD    5
  ---------------------------------------------------------------------------

            1           2           3           4           5           6           7           8           9          10
 ........................................................................................................................
   1   -25.00      -24.92      -24.86      -24.82      -24.80      -24.80      -24.82      -24.86      -24.92      -25.00    
1
  HEAD IN LAYER   2 AT END OF TIME STEP  39 IN STRESS PERIOD    5
  ---------------------------------------------------------------------------

            1           2           3           4           5           6           7           8           9          10
 ........................................................................................................................
   1   -25.00      -24.92      -24.86      -24.82      -24.80      -24.80      -24.82      -24.86      -24.92      -25.00    
1
  HEAD IN LAYER   3 AT END OF TIME STEP  39 IN STRESS PERIOD    5
  ---------------------------------------------------------------------------

            1           2           3           4           5           6           7           8           9          10
 ........................................................................................................................
   1   -25.00      -24.92      -24.86      -24.82      -24.80      -24.80      -24.82      -24.86      -24.92      -25.00    

 HEAD WILL BE SAVED ON UNIT 1022 AT END OF TIME STEP   39, STRESS PERIOD    5


  UZF-1 BUDGET FOR ENTIRE MODEL AT END OF TIME STEP   39, STRESS PERIOD   5
  ------------------------------------------------------------------------------

     CUMULATIVE UZF-1      L**3       RATES FOR THIS TIME STEP      L**3/T
     ------------------                 ------------------------

           IN:                                      IN:
           ---                                      ---
                 GWF =           0.0000                   GWF =           0.0000
        INFILTRATION =      480000.0000          INFILTRATION =           0.0000
             REJ-INF =           0.0000               REJ-INF =           0.0000
                UZET =           0.0000                  UZET =           0.0000
             STORAGE =      484824.1791               STORAGE =          79.3077

            TOTAL IN =      964824.1791              TOTAL IN =          79.3077

          OUT:                                     OUT:
          ----                                     ----
                 GWF =       68970.6149                   GWF =          79.0702
        INFILTRATION =           0.0000          INFILTRATION =           0.0000
             REJ-INF =           0.0000               REJ-INF =           0.0000
                UZET =         915.0446                  UZET =           0.2348
             STORAGE =      894878.6925               STORAGE =           0.0000

           TOTAL OUT =      964764.3521             TOTAL OUT =          79.3049

            IN - OUT =          59.8270              IN - OUT =       2.7758E-03

 PERCENT DISCREPANCY =           0.01     PERCENT DISCREPANCY =           0.00



  VOLUME BUDGET FOR ENTIRE MODEL AT END OF TIME STEP   39, STRESS PERIOD   5
  ---------------------------------------------------------------------------------------------------

     CUMULATIVE VOLUME      L**3       RATES FOR THIS TIME STEP      L**3/T          PACKAGE NAME    
     ------------------                 ------------------------                     ----------------

           IN:                                      IN:
           ---                                      ---
              STO-SS =           0.1164                STO-SS =       8.0942E-04     STORAGE         
              STO-SY =         451.3667                STO-SY =           3.1359     STORAGE         
                 CHD =           0.0000                   CHD =           0.0000     CHD-1           
           UZF-GWRCH =       68970.6149             UZF-GWRCH =          79.0702     UZF-1           
             UZF-GWD =           0.0000               UZF-GWD =           0.0000     UZF-1           
            UZF-GWET =           0.0000              UZF-GWET =           0.0000     UZF-1           

            TOTAL IN =       69422.0980              TOTAL IN =          82.2069

          OUT:                                     OUT:
          ----                                     ----
              STO-SS =           6.2557                STO-SS =           0.0000     STORAGE         
              STO-SY =       24610.3617                STO-SY =           0.0000     STORAGE         
                 CHD =       44805.4051                   CHD =          82.2070     CHD-1           
           UZF-GWRCH =           0.0000             UZF-GWRCH =           0.0000     UZF-1           
             UZF-GWD =           0.0000               UZF-GWD =           0.0000     UZF-1           
            UZF-GWET =           0.0000              UZF-GWET =           0.0000     UZF-1           

           TOTAL OUT =       69422.0225             TOTAL OUT =          82.2070

            IN - OUT =       7.5547E-02              IN - OUT =      -1.2354E-04

 PERCENT DISCREPANCY =           0.00     PERCENT DISCREPANCY =          -0.00




         TIME SUMMARY AT END OF TIME STEP   39 IN STRESS PERIOD    5
                    SECONDS     MINUTES      HOURS       DAYS        YEARS
                    -----------------------------------------------------------
   TIME STEP LENGTH 3.45600E+06  57600.      960.00      40.000     0.10951    
 STRESS PERIOD TIME 1.34784E+08 2.24640E+06  37440.      1560.0      4.2710    
         TOTAL TIME 1.83168E+08 3.05280E+06  50880.      2120.0      5.8042    


end timestep


start timestep kper="5" kstp="40" mode="normal"

 UBDSV1 SAVING     FLOW-JA-FACE ON UNIT   1020 AT TIME STEP     40, STRESS PERIOD      5
 UBDSV06 SAVING     FLOW-JA-FACE IN MODEL GWF_1            PACKAGE UZF-1           CONNECTED TO MODEL GWF_1            PACKAGE UZF-1            ON UNIT   1014 AT TIME STEP     40, STRESS PERIOD      5
 UBDSV06 SAVING              GWF IN MODEL GWF_1            PACKAGE UZF-1           CONNECTED TO MODEL GWF_1            PACKAGE GWF_1            ON UNIT   1014 AT TIME STEP     40, STRESS PERIOD      5
 UBDSV06 SAVING     INFILTRATION IN MODEL GWF_1            PACKAGE UZF-1           CONNECTED TO MODEL GWF_1            PACKAGE UZF-1            ON UNIT   1014 AT TIME STEP     40, STRESS PERIOD      5
 UBDSV06 SAVING          REJ-INF IN MODEL GWF_1            PACKAGE UZF-1           CONNECTED TO MODEL GWF_1            PACKAGE UZF-1            ON UNIT   1014 AT TIME STEP     40, STRESS PERIOD      5
 UBDSV06 SAVING             UZET IN MODEL GWF_1            PACKAGE UZF-1           CONNECTED TO MODEL GWF_1            PACKAGE UZF-1            ON UNIT   1014 AT TIME STEP     40, STRESS PERIOD      5
 UBDSV06 SAVING          STORAGE IN MODEL GWF_1            PACKAGE UZF-1           CONNECTED TO MODEL GWF_1            PACKAGE UZF-1            ON UNIT   1014 AT TIME STEP     40, STRESS PERIOD      5

 CHD PACKAGE (CHD-1) FLOW RATES   PERIOD      5   STEP       40
 -----------------------------------------------
   NUMBER   CELLID                    RATE      
 -----------------------------------------------
     1      (3,1,1)              -40.605746     
     2      (3,1,10)             -40.605746     
 -----------------------------------------------




 UZF-GWRCH PACKAGE (UZF-1) FLOW RATES   PERIOD      5   STEP       40
 ----------------------------------------------------------------------------------------
   NUMBER   CELLID                    RATE       NAME                                    
 ----------------------------------------------------------------------------------------
     1      (1,1,2)               0.0000000      UZF01                                   
     2      (1,1,3)               0.0000000      UZF02                                   
     3      (1,1,4)               0.0000000      UZF03                                   
     4      (1,1,5)               0.0000000      UZF04                                   
     5      (1,1,6)               0.0000000      UZF05                                   
     6      (1,1,7)               0.0000000      UZF06                                   
     7      (1,1,8)               0.0000000      UZF07                                   
     8      (1,1,9)               0.0000000      UZF08                                   
     9      (2,1,2)               0.0000000      UZF08                                   
     10     (2,1,3)               0.0000000      UZF10                                   
     11     (2,1,4)               0.0000000      UZF11                                   
     12     (2,1,5)               0.0000000      UZF12                                   
     13     (2,1,6)               0.0000000      UZF13                                   
     14     (2,1,7)               0.0000000      UZF14                                   
     15     (2,1,8)               0.0000000      UZF15                                   
     16     (2,1,9)               0.0000000      UZF16                                   
     17     (3,1,2)               9.5080231      UZF17                                   
     18     (3,1,3)               9.3395298      UZF18                                   
     19     (3,1,4)               9.2186199      UZF19                                   
     20     (3,1,5)               9.1560102      UZF20                                   
     21     (3,1,6)               9.1560102      UZF21                                   
     22     (3,1,7)               9.2186199      UZF22                                   
     23     (3,1,8)               9.3395298      UZF23                                   
     24     (3,1,9)               9.5080231      UZF24                                   
 ----------------------------------------------------------------------------------------




 UZF-GWD PACKAGE (UZF-1) FLOW RATES   PERIOD      5   STEP       40
 ----------------------------------------------------------------------------------------
   NUMBER   CELLID                    RATE       NAME                                    
 ----------------------------------------------------------------------------------------
     1      (1,1,2)               0.0000000      UZF01                                   
     2      (1,1,3)               0.0000000      UZF02                                   
     3      (1,1,4)               0.0000000      UZF03                                   
     4      (1,1,5)               0.0000000      UZF04                                   
     5      (1,1,6)               0.0000000      UZF05                                   
     6      (1,1,7)               0.0000000      UZF06                                   
     7      (1,1,8)               0.0000000      UZF07                                   
     8      (1,1,9)               0.0000000      UZF08                                   
     9      (2,1,2)               0.0000000      UZF08                                   
     10     (2,1,3)               0.0000000      UZF10                                   
     11     (2,1,4)               0.0000000      UZF11                                   
     12     (2,1,5)               0.0000000      UZF12                                   
     13     (2,1,6)               0.0000000      UZF13                                   
     14     (2,1,7)               0.0000000      UZF14                                   
     15     (2,1,8)               0.0000000      UZF15                                   
     16     (2,1,9)               0.0000000      UZF16                                   
     17     (3,1,2)               0.0000000      UZF17                                   
     18     (3,1,3)               0.0000000      UZF18                                   
     19     (3,1,4)               0.0000000      UZF19                                   
     20     (3,1,5)               0.0000000      UZF20                                   
     21     (3,1,6)               0.0000000      UZF21                                   
     22     (3,1,7)               0.0000000      UZF22                                   
     23     (3,1,8)               0.0000000      UZF23                                   
     24     (3,1,9)               0.0000000      UZF24                                   
 ----------------------------------------------------------------------------------------




 UZF-GWET PACKAGE (UZF-1) FLOW RATES   PERIOD      5   STEP       40
 ----------------------------------------------------------------------------------------
   NUMBER   CELLID                    RATE       NAME                                    
 ----------------------------------------------------------------------------------------
     1      (1,1,2)               0.0000000      UZF01                                   
     2      (1,1,3)               0.0000000      UZF02                                   
     3      (1,1,4)               0.0000000      UZF03                                   
     4      (1,1,5)               0.0000000      UZF04                                   
     5      (1,1,6)               0.0000000      UZF05                                   
     6      (1,1,7)               0.0000000      UZF06                                   
     7      (1,1,8)               0.0000000      UZF07                                   
     8      (1,1,9)               0.0000000      UZF08                                   
     9      (2,1,2)               0.0000000      UZF08                                   
     10     (2,1,3)               0.0000000      UZF10                                   
     11     (2,1,4)               0.0000000      UZF11                                   
     12     (2,1,5)               0.0000000      UZF12                                   
     13     (2,1,6)               0.0000000      UZF13                                   
     14     (2,1,7)               0.0000000      UZF14                                   
     15     (2,1,8)               0.0000000      UZF15                                   
     16     (2,1,9)               0.0000000      UZF16                                   
     17     (3,1,2)               0.0000000      UZF17                                   
     18     (3,1,3)               0.0000000      UZF18                                   
     19     (3,1,4)               0.0000000      UZF19                                   
     20     (3,1,5)               0.0000000      UZF20                                   
     21     (3,1,6)               0.0000000      UZF21                                   
     22     (3,1,7)               0.0000000      UZF22                                   
     23     (3,1,8)               0.0000000      UZF23                                   
     24     (3,1,9)               0.0000000      UZF24                                   
 ----------------------------------------------------------------------------------------




 UZF-1 PACKAGE - SUMMARY OF FLOWS FOR EACH CONTROL VOLUME   PERIOD      5   STEP       40
 ----------------------------------------------------------------------------------------------------------------------------------------------------
                                                                                                                                           PERCENT   
   NUMBER   CELLID                  INFLOW      OUTFLOW        GWF      INFILTRATION   REJ INF        UZET       STORAGE      IN - OUT    DIFFERENCE 
 ----------------------------------------------------------------------------------------------------------------------------------------------------
     1      (1,1,2)               0.0000      -1.1760       0.0000       0.0000       0.0000       0.0000       1.1760       2.33147E-14  1.98249E-12
     2      (1,1,3)               0.0000      -1.1760       0.0000       0.0000       0.0000       0.0000       1.1760       2.33147E-14  1.98249E-12
     3      (1,1,4)               0.0000      -1.1760       0.0000       0.0000       0.0000       0.0000       1.1760       2.33147E-14  1.98249E-12
     4      (1,1,5)               0.0000      -1.1760       0.0000       0.0000       0.0000       0.0000       1.1760       2.33147E-14  1.98249E-12
     5      (1,1,6)               0.0000      -1.1760       0.0000       0.0000       0.0000       0.0000       1.1760       2.33147E-14  1.98249E-12
     6      (1,1,7)               0.0000      -1.1760       0.0000       0.0000       0.0000       0.0000       1.1760       2.33147E-14  1.98249E-12
     7      (1,1,8)               0.0000      -1.1760       0.0000       0.0000       0.0000       0.0000       1.1760       2.33147E-14  1.98249E-12
     8      (1,1,9)               0.0000      -1.1760       0.0000       0.0000       0.0000       0.0000       1.1760       2.33147E-14  1.98249E-12
     9      (2,1,2)               1.1760      -6.4086       0.0000       0.0000       0.0000      -2.82771E-02  5.2612       3.47245E-04  5.39448E-03
     10     (2,1,3)               1.1760      -6.4086       0.0000       0.0000       0.0000      -2.82771E-02  5.2612       3.47245E-04  5.39448E-03
     11     (2,1,4)               1.1760      -6.4086       0.0000       0.0000       0.0000      -2.82771E-02  5.2612       3.47245E-04  5.39448E-03
     12     (2,1,5)               1.1760      -6.4086       0.0000       0.0000       0.0000      -2.82771E-02  5.2612       3.47245E-04  5.39448E-03
     13     (2,1,6)               1.1760      -6.4086       0.0000       0.0000       0.0000      -2.82771E-02  5.2612       3.47245E-04  5.39448E-03
     14     (2,1,7)               1.1760      -6.4086       0.0000       0.0000       0.0000      -2.82771E-02  5.2612       3.47245E-04  5.39448E-03
     15     (2,1,8)               1.1760      -6.4086       0.0000       0.0000       0.0000      -2.82771E-02  5.2612       3.47245E-04  5.39448E-03
     16     (2,1,9)               1.1760      -6.4086       0.0000       0.0000       0.0000      -2.82771E-02  5.2612       3.47245E-04  5.39448E-03
     17     (3,1,2)               6.4086       0.0000      -9.5080       0.0000       0.0000       0.0000       3.0994       9.55050E-07  1.00447E-05
     18     (3,1,3)               6.4086       0.0000      -9.3395       0.0000       0.0000       0.0000       2.9309       9.55050E-07  1.02259E-05
     19     (3,1,4)               6.4086       0.0000      -9.2186       0.0000       0.0000       0.0000       2.8100       9.55050E-07  1.03600E-05
     20     (3,1,5)               6.4086       0.0000      -9.1560       0.0000       0.0000       0.0000       2.7474       9.55050E-07  1.04308E-05
     21     (3,1,6)               6.4086       0.0000      -9.1560       0.0000       0.0000       0.0000       2.7474       9.55050E-07  1.04308E-05
     22     (3,1,7)               6.4086       0.0000      -9.2186       0.0000       0.0000       0.0000       2.8100       9.55050E-07  1.03600E-05
     23     (3,1,8)               6.4086       0.0000      -9.3395       0.0000       0.0000       0.0000       2.9309       9.55050E-07  1.02259E-05
     24     (3,1,9)               6.4086       0.0000      -9.5080       0.0000       0.0000       0.0000       3.0994       9.55050E-07  1.00447E-05
 ----------------------------------------------------------------------------------------------------------------------------------------------------


1
  HEAD IN LAYER   1 AT END OF TIME STEP  40 IN STRESS PERIOD    5
  ---------------------------------------------------------------------------

            1           2           3           4           5           6           7           8           9          10
 ........................................................................................................................
   1   -25.00      -24.92      -24.86      -24.82      -24.80      -24.80      -24.82      -24.86      -24.92      -25.00    
1
  HEAD IN LAYER   2 AT END OF TIME STEP  40 IN STRESS PERIOD    5
  ---------------------------------------------------------------------------

            1           2           3           4           5           6           7           8           9          10
 ........................................................................................................................
   1   -25.00      -24.92      -24.86      -24.82      -24.80      -24.80      -24.82      -24.86      -24.92      -25.00    
1
  HEAD IN LAYER   3 AT END OF TIME STEP  40 IN STRESS PERIOD    5
  ---------------------------------------------------------------------------

            1           2           3           4           5           6           7           8           9          10
 ........................................................................................................................
   1   -25.00      -24.92      -24.86      -24.82      -24.80      -24.80      -24.82      -24.86      -24.92      -25.00    

 HEAD WILL BE SAVED ON UNIT 1022 AT END OF TIME STEP   40, STRESS PERIOD    5


  UZF-1 BUDGET FOR ENTIRE MODEL AT END OF TIME STEP   40, STRESS PERIOD   5
  ------------------------------------------------------------------------------

     CUMULATIVE UZF-1      L**3       RATES FOR THIS TIME STEP      L**3/T
     ------------------                 ------------------------

           IN:                                      IN:
           ---                                      ---
                 GWF =           0.0000                   GWF =           0.0000
        INFILTRATION =      480000.0000          INFILTRATION =           0.0000
             REJ-INF =           0.0000               REJ-INF =           0.0000
                UZET =           0.0000                  UZET =           0.0000
             STORAGE =      487811.1138               STORAGE =          74.6734

            TOTAL IN =      967811.1138              TOTAL IN =          74.6734

          OUT:                                     OUT:
          ----                                     ----
                 GWF =       71948.3896                   GWF =          74.4444
        INFILTRATION =           0.0000          INFILTRATION =           0.0000
             REJ-INF =           0.0000               REJ-INF =           0.0000
                UZET =         924.0933                  UZET =           0.2262
             STORAGE =      894878.6925               STORAGE =           0.0000

           TOTAL OUT =      967751.1754             TOTAL OUT =          74.6706

            IN - OUT =          59.9385              IN - OUT =       2.7856E-03

 PERCENT DISCREPANCY =           0.01     PERCENT DISCREPANCY =           0.00



  VOLUME BUDGET FOR ENTIRE MODEL AT END OF TIME STEP   40, STRESS PERIOD   5
  ---------------------------------------------------------------------------------------------------

     CUMULATIVE VOLUME      L**3       RATES FOR THIS TIME STEP      L**3/T          PACKAGE NAME    
     ------------------                 ------------------------                     ----------------

           IN:                                      IN:
           ---                                      ---
              STO-SS =           0.1862                STO-SS =       1.7463E-03     STORAGE         
              STO-SY =         721.9726                STO-SY =           6.7651     STORAGE         
                 CHD =           0.0000                   CHD =           0.0000     CHD-1           
           UZF-GWRCH =       71948.3896             UZF-GWRCH =          74.4444     UZF-1           
             UZF-GWD =           0.0000               UZF-GWD =           0.0000     UZF-1           
            UZF-GWET =           0.0000              UZF-GWET =           0.0000     UZF-1           

            TOTAL IN =       72670.5485              TOTAL IN =          81.2113

          OUT:                                     OUT:
          ----                                     ----
              STO-SS =           6.2557                STO-SS =           0.0000     STORAGE         
              STO-SY =       24610.3617                STO-SY =           0.0000     STORAGE         
                 CHD =       48053.8648                   CHD =          81.2115     CHD-1           
           UZF-GWRCH =           0.0000             UZF-GWRCH =           0.0000     UZF-1           
             UZF-GWD =           0.0000               UZF-GWD =           0.0000     UZF-1           
            UZF-GWET =           0.0000              UZF-GWET =           0.0000     UZF-1           

           TOTAL OUT =       72670.4822             TOTAL OUT =          81.2115

            IN - OUT =       6.6298E-02              IN - OUT =      -2.3122E-04

 PERCENT DISCREPANCY =           0.00     PERCENT DISCREPANCY =          -0.00




         TIME SUMMARY AT END OF TIME STEP   40 IN STRESS PERIOD    5
                    SECONDS     MINUTES      HOURS       DAYS        YEARS
                    -----------------------------------------------------------
   TIME STEP LENGTH 3.45600E+06  57600.      960.00      40.000     0.10951    
 STRESS PERIOD TIME 1.38240E+08 2.30400E+06  38400.      1600.0      4.3806    
         TOTAL TIME 1.86624E+08 3.11040E+06  51840.      2160.0      5.9138    


end timestep


start timestep kper="5" kstp="41" mode="normal"

 UBDSV1 SAVING     FLOW-JA-FACE ON UNIT   1020 AT TIME STEP     41, STRESS PERIOD      5
 UBDSV06 SAVING     FLOW-JA-FACE IN MODEL GWF_1            PACKAGE UZF-1           CONNECTED TO MODEL GWF_1            PACKAGE UZF-1            ON UNIT   1014 AT TIME STEP     41, STRESS PERIOD      5
 UBDSV06 SAVING              GWF IN MODEL GWF_1            PACKAGE UZF-1           CONNECTED TO MODEL GWF_1            PACKAGE GWF_1            ON UNIT   1014 AT TIME STEP     41, STRESS PERIOD      5
 UBDSV06 SAVING     INFILTRATION IN MODEL GWF_1            PACKAGE UZF-1           CONNECTED TO MODEL GWF_1            PACKAGE UZF-1            ON UNIT   1014 AT TIME STEP     41, STRESS PERIOD      5
 UBDSV06 SAVING          REJ-INF IN MODEL GWF_1            PACKAGE UZF-1           CONNECTED TO MODEL GWF_1            PACKAGE UZF-1            ON UNIT   1014 AT TIME STEP     41, STRESS PERIOD      5
 UBDSV06 SAVING             UZET IN MODEL GWF_1            PACKAGE UZF-1           CONNECTED TO MODEL GWF_1            PACKAGE UZF-1            ON UNIT   1014 AT TIME STEP     41, STRESS PERIOD      5
 UBDSV06 SAVING          STORAGE IN MODEL GWF_1            PACKAGE UZF-1           CONNECTED TO MODEL GWF_1            PACKAGE UZF-1            ON UNIT   1014 AT TIME STEP     41, STRESS PERIOD      5

 CHD PACKAGE (CHD-1) FLOW RATES   PERIOD      5   STEP       41
 -----------------------------------------------
   NUMBER   CELLID                    RATE      
 -----------------------------------------------
     1      (3,1,1)              -39.643766     
     2      (3,1,10)             -39.643766     
 -----------------------------------------------




 UZF-GWRCH PACKAGE (UZF-1) FLOW RATES   PERIOD      5   STEP       41
 ----------------------------------------------------------------------------------------
   NUMBER   CELLID                    RATE       NAME                                    
 ----------------------------------------------------------------------------------------
     1      (1,1,2)               0.0000000      UZF01                                   
     2      (1,1,3)               0.0000000      UZF02                                   
     3      (1,1,4)               0.0000000      UZF03                                   
     4      (1,1,5)               0.0000000      UZF04                                   
     5      (1,1,6)               0.0000000      UZF05                                   
     6      (1,1,7)               0.0000000      UZF06                                   
     7      (1,1,8)               0.0000000      UZF07                                   
     8      (1,1,9)               0.0000000      UZF08                                   
     9      (2,1,2)               0.0000000      UZF08                                   
     10     (2,1,3)               0.0000000      UZF10                                   
     11     (2,1,4)               0.0000000      UZF11                                   
     12     (2,1,5)               0.0000000      UZF12                                   
     13     (2,1,6)               0.0000000      UZF13                                   
     14     (2,1,7)               0.0000000      UZF14                                   
     15     (2,1,8)               0.0000000      UZF15                                   
     16     (2,1,9)               0.0000000      UZF16                                   
     17     (3,1,2)               8.5898478      UZF17                                   
     18     (3,1,3)               8.4952151      UZF18                                   
     19     (3,1,4)               8.4566717      UZF19                                   
     20     (3,1,5)               8.4439068      UZF20                                   
     21     (3,1,6)               8.4439068      UZF21                                   
     22     (3,1,7)               8.4566717      UZF22                                   
     23     (3,1,8)               8.4952151      UZF23                                   
     24     (3,1,9)               8.5898478      UZF24                                   
 ----------------------------------------------------------------------------------------




 UZF-GWD PACKAGE (UZF-1) FLOW RATES   PERIOD      5   STEP       41
 ----------------------------------------------------------------------------------------
   NUMBER   CELLID                    RATE       NAME                                    
 ----------------------------------------------------------------------------------------
     1      (1,1,2)               0.0000000      UZF01                                   
     2      (1,1,3)               0.0000000      UZF02                                   
     3      (1,1,4)               0.0000000      UZF03                                   
     4      (1,1,5)               0.0000000      UZF04                                   
     5      (1,1,6)               0.0000000      UZF05                                   
     6      (1,1,7)               0.0000000      UZF06                                   
     7      (1,1,8)               0.0000000      UZF07                                   
     8      (1,1,9)               0.0000000      UZF08                                   
     9      (2,1,2)               0.0000000      UZF08                                   
     10     (2,1,3)               0.0000000      UZF10                                   
     11     (2,1,4)               0.0000000      UZF11                                   
     12     (2,1,5)               0.0000000      UZF12                                   
     13     (2,1,6)               0.0000000      UZF13                                   
     14     (2,1,7)               0.0000000      UZF14                                   
     15     (2,1,8)               0.0000000      UZF15                                   
     16     (2,1,9)               0.0000000      UZF16                                   
     17     (3,1,2)               0.0000000      UZF17                                   
     18     (3,1,3)               0.0000000      UZF18                                   
     19     (3,1,4)               0.0000000      UZF19                                   
     20     (3,1,5)               0.0000000      UZF20                                   
     21     (3,1,6)               0.0000000      UZF21                                   
     22     (3,1,7)               0.0000000      UZF22                                   
     23     (3,1,8)               0.0000000      UZF23                                   
     24     (3,1,9)               0.0000000      UZF24                                   
 ----------------------------------------------------------------------------------------




 UZF-GWET PACKAGE (UZF-1) FLOW RATES   PERIOD      5   STEP       41
 ----------------------------------------------------------------------------------------
   NUMBER   CELLID                    RATE       NAME                                    
 ----------------------------------------------------------------------------------------
     1      (1,1,2)               0.0000000      UZF01                                   
     2      (1,1,3)               0.0000000      UZF02                                   
     3      (1,1,4)               0.0000000      UZF03                                   
     4      (1,1,5)               0.0000000      UZF04                                   
     5      (1,1,6)               0.0000000      UZF05                                   
     6      (1,1,7)               0.0000000      UZF06                                   
     7      (1,1,8)               0.0000000      UZF07                                   
     8      (1,1,9)               0.0000000      UZF08                                   
     9      (2,1,2)               0.0000000      UZF08                                   
     10     (2,1,3)               0.0000000      UZF10                                   
     11     (2,1,4)               0.0000000      UZF11                                   
     12     (2,1,5)               0.0000000      UZF12                                   
     13     (2,1,6)               0.0000000      UZF13                                   
     14     (2,1,7)               0.0000000      UZF14                                   
     15     (2,1,8)               0.0000000      UZF15                                   
     16     (2,1,9)               0.0000000      UZF16                                   
     17     (3,1,2)               0.0000000      UZF17                                   
     18     (3,1,3)               0.0000000      UZF18                                   
     19     (3,1,4)               0.0000000      UZF19                                   
     20     (3,1,5)               0.0000000      UZF20                                   
     21     (3,1,6)               0.0000000      UZF21                                   
     22     (3,1,7)               0.0000000      UZF22                                   
     23     (3,1,8)               0.0000000      UZF23                                   
     24     (3,1,9)               0.0000000      UZF24                                   
 ----------------------------------------------------------------------------------------




 UZF-1 PACKAGE - SUMMARY OF FLOWS FOR EACH CONTROL VOLUME   PERIOD      5   STEP       41
 ----------------------------------------------------------------------------------------------------------------------------------------------------
                                                                                                                                           PERCENT   
   NUMBER   CELLID                  INFLOW      OUTFLOW        GWF      INFILTRATION   REJ INF        UZET       STORAGE      IN - OUT    DIFFERENCE 
 ----------------------------------------------------------------------------------------------------------------------------------------------------
     1      (1,1,2)               0.0000      -1.1760       0.0000       0.0000       0.0000       0.0000       1.1760       2.33147E-14  1.98249E-12
     2      (1,1,3)               0.0000      -1.1760       0.0000       0.0000       0.0000       0.0000       1.1760       2.33147E-14  1.98249E-12
     3      (1,1,4)               0.0000      -1.1760       0.0000       0.0000       0.0000       0.0000       1.1760       2.33147E-14  1.98249E-12
     4      (1,1,5)               0.0000      -1.1760       0.0000       0.0000       0.0000       0.0000       1.1760       2.33147E-14  1.98249E-12
     5      (1,1,6)               0.0000      -1.1760       0.0000       0.0000       0.0000       0.0000       1.1760       2.33147E-14  1.98249E-12
     6      (1,1,7)               0.0000      -1.1760       0.0000       0.0000       0.0000       0.0000       1.1760       2.33147E-14  1.98249E-12
     7      (1,1,8)               0.0000      -1.1760       0.0000       0.0000       0.0000       0.0000       1.1760       2.33147E-14  1.98249E-12
     8      (1,1,9)               0.0000      -1.1760       0.0000       0.0000       0.0000       0.0000       1.1760       2.33147E-14  1.98249E-12
     9      (2,1,2)               1.1760      -6.4061       0.0000       0.0000       0.0000      -2.72072E-02  5.2576       3.48042E-04  5.40988E-03
     10     (2,1,3)               1.1760      -6.4061       0.0000       0.0000       0.0000      -2.72072E-02  5.2576       3.48042E-04  5.40988E-03
     11     (2,1,4)               1.1760      -6.4061       0.0000       0.0000       0.0000      -2.72072E-02  5.2576       3.48042E-04  5.40988E-03
     12     (2,1,5)               1.1760      -6.4061       0.0000       0.0000       0.0000      -2.72072E-02  5.2576       3.48042E-04  5.40988E-03
     13     (2,1,6)               1.1760      -6.4061       0.0000       0.0000       0.0000      -2.72072E-02  5.2576       3.48042E-04  5.40988E-03
     14     (2,1,7)               1.1760      -6.4061       0.0000       0.0000       0.0000      -2.72072E-02  5.2576       3.48042E-04  5.40988E-03
     15     (2,1,8)               1.1760      -6.4061       0.0000       0.0000       0.0000      -2.72072E-02  5.2576       3.48042E-04  5.40988E-03
     16     (2,1,9)               1.1760      -6.4061       0.0000       0.0000       0.0000      -2.72072E-02  5.2576       3.48042E-04  5.40988E-03
     17     (3,1,2)               6.4061       0.0000      -8.5898       0.0000       0.0000       0.0000       2.1838       9.54766E-07  1.11151E-05
     18     (3,1,3)               6.4061       0.0000      -8.4952       0.0000       0.0000       0.0000       2.0892       9.54766E-07  1.12389E-05
     19     (3,1,4)               6.4061       0.0000      -8.4567       0.0000       0.0000       0.0000       2.0506       9.54766E-07  1.12901E-05
     20     (3,1,5)               6.4061       0.0000      -8.4439       0.0000       0.0000       0.0000       2.0378       9.54766E-07  1.13072E-05
     21     (3,1,6)               6.4061       0.0000      -8.4439       0.0000       0.0000       0.0000       2.0378       9.54766E-07  1.13072E-05
     22     (3,1,7)               6.4061       0.0000      -8.4567       0.0000       0.0000       0.0000       2.0506       9.54766E-07  1.12901E-05
     23     (3,1,8)               6.4061       0.0000      -8.4952       0.0000       0.0000       0.0000       2.0892       9.54766E-07  1.12389E-05
     24     (3,1,9)               6.4061       0.0000      -8.5898       0.0000       0.0000       0.0000       2.1838       9.54766E-07  1.11150E-05
 ----------------------------------------------------------------------------------------------------------------------------------------------------


1
  HEAD IN LAYER   1 AT END OF TIME STEP  41 IN STRESS PERIOD    5
  ---------------------------------------------------------------------------

            1           2           3           4           5           6           7           8           9          10
 ........................................................................................................................
   1   -25.00      -24.92      -24.86      -24.82      -24.80      -24.80      -24.82      -24.86      -24.92      -25.00    
1
  HEAD IN LAYER   2 AT END OF TIME STEP  41 IN STRESS PERIOD    5
  ---------------------------------------------------------------------------

            1           2           3           4           5           6           7           8           9          10
 ........................................................................................................................
   1   -25.00      -24.92      -24.86      -24.82      -24.80      -24.80      -24.82      -24.86      -24.92      -25.00    
1
  HEAD IN LAYER   3 AT END OF TIME STEP  41 IN STRESS PERIOD    5
  ---------------------------------------------------------------------------

            1           2           3           4           5           6           7           8           9          10
 ........................................................................................................................
   1   -25.00      -24.92      -24.86      -24.82      -24.80      -24.80      -24.82      -24.86      -24.92      -25.00    

 HEAD WILL BE SAVED ON UNIT 1022 AT END OF TIME STEP   41, STRESS PERIOD    5


  UZF-1 BUDGET FOR ENTIRE MODEL AT END OF TIME STEP   41, STRESS PERIOD   5
  ------------------------------------------------------------------------------

     CUMULATIVE UZF-1      L**3       RATES FOR THIS TIME STEP      L**3/T
     ------------------                 ------------------------

           IN:                                      IN:
           ---                                      ---
                 GWF =           0.0000                   GWF =           0.0000
        INFILTRATION =      480000.0000          INFILTRATION =           0.0000
             REJ-INF =           0.0000               REJ-INF =           0.0000
                UZET =           0.0000                  UZET =           0.0000
             STORAGE =      490538.7832               STORAGE =          68.1917

            TOTAL IN =      970538.7832              TOTAL IN =          68.1917

          OUT:                                     OUT:
          ----                                     ----
                 GWF =       74667.2409                   GWF =          67.9713
        INFILTRATION =           0.0000          INFILTRATION =           0.0000
             REJ-INF =           0.0000               REJ-INF =           0.0000
                UZET =         932.7996                  UZET =           0.2177
             STORAGE =      894878.6925               STORAGE =           0.0000

           TOTAL OUT =      970478.7330             TOTAL OUT =          68.1889

            IN - OUT =          60.0502              IN - OUT =       2.7920E-03

 PERCENT DISCREPANCY =           0.01     PERCENT DISCREPANCY =           0.00



  VOLUME BUDGET FOR ENTIRE MODEL AT END OF TIME STEP   41, STRESS PERIOD   5
  ---------------------------------------------------------------------------------------------------

     CUMULATIVE VOLUME      L**3       RATES FOR THIS TIME STEP      L**3/T          PACKAGE NAME    
     ------------------                 ------------------------                     ----------------

           IN:                                      IN:
           ---                                      ---
              STO-SS =           0.3029                STO-SS =       2.9173E-03     STORAGE         
              STO-SY =        1174.4909                STO-SY =          11.3130     STORAGE         
                 CHD =           0.0000                   CHD =           0.0000     CHD-1           
           UZF-GWRCH =       74667.2409             UZF-GWRCH =          67.9713     UZF-1           
             UZF-GWD =           0.0000               UZF-GWD =           0.0000     UZF-1           
            UZF-GWET =           0.0000              UZF-GWET =           0.0000     UZF-1           

            TOTAL IN =       75842.0347              TOTAL IN =          79.2872

          OUT:                                     OUT:
          ----                                     ----
              STO-SS =           6.2557                STO-SS =           0.0000     STORAGE         
              STO-SY =       24610.3617                STO-SY =           0.0000     STORAGE         
                 CHD =       51225.3660                   CHD =          79.2875     CHD-1           
           UZF-GWRCH =           0.0000             UZF-GWRCH =           0.0000     UZF-1           
             UZF-GWD =           0.0000               UZF-GWD =           0.0000     UZF-1           
            UZF-GWET =           0.0000              UZF-GWET =           0.0000     UZF-1           

           TOTAL OUT =       75841.9834             TOTAL OUT =          79.2875

            IN - OUT =       5.1259E-02              IN - OUT =      -3.7600E-04

 PERCENT DISCREPANCY =           0.00     PERCENT DISCREPANCY =          -0.00




         TIME SUMMARY AT END OF TIME STEP   41 IN STRESS PERIOD    5
                    SECONDS     MINUTES      HOURS       DAYS        YEARS
                    -----------------------------------------------------------
   TIME STEP LENGTH 3.45600E+06  57600.      960.00      40.000     0.10951    
 STRESS PERIOD TIME 1.41696E+08 2.36160E+06  39360.      1640.0      4.4901    
         TOTAL TIME 1.90080E+08 3.16800E+06  52800.      2200.0      6.0233    


end timestep


start timestep kper="5" kstp="42" mode="normal"

 UBDSV1 SAVING     FLOW-JA-FACE ON UNIT   1020 AT TIME STEP     42, STRESS PERIOD      5
 UBDSV06 SAVING     FLOW-JA-FACE IN MODEL GWF_1            PACKAGE UZF-1           CONNECTED TO MODEL GWF_1            PACKAGE UZF-1            ON UNIT   1014 AT TIME STEP     42, STRESS PERIOD      5
 UBDSV06 SAVING              GWF IN MODEL GWF_1            PACKAGE UZF-1           CONNECTED TO MODEL GWF_1            PACKAGE GWF_1            ON UNIT   1014 AT TIME STEP     42, STRESS PERIOD      5
 UBDSV06 SAVING     INFILTRATION IN MODEL GWF_1            PACKAGE UZF-1           CONNECTED TO MODEL GWF_1            PACKAGE UZF-1            ON UNIT   1014 AT TIME STEP     42, STRESS PERIOD      5
 UBDSV06 SAVING          REJ-INF IN MODEL GWF_1            PACKAGE UZF-1           CONNECTED TO MODEL GWF_1            PACKAGE UZF-1            ON UNIT   1014 AT TIME STEP     42, STRESS PERIOD      5
 UBDSV06 SAVING             UZET IN MODEL GWF_1            PACKAGE UZF-1           CONNECTED TO MODEL GWF_1            PACKAGE UZF-1            ON UNIT   1014 AT TIME STEP     42, STRESS PERIOD      5
 UBDSV06 SAVING          STORAGE IN MODEL GWF_1            PACKAGE UZF-1           CONNECTED TO MODEL GWF_1            PACKAGE UZF-1            ON UNIT   1014 AT TIME STEP     42, STRESS PERIOD      5

 CHD PACKAGE (CHD-1) FLOW RATES   PERIOD      5   STEP       42
 -----------------------------------------------
   NUMBER   CELLID                    RATE      
 -----------------------------------------------
     1      (3,1,1)              -38.710429     
     2      (3,1,10)             -38.710429     
 -----------------------------------------------




 UZF-GWRCH PACKAGE (UZF-1) FLOW RATES   PERIOD      5   STEP       42
 ----------------------------------------------------------------------------------------
   NUMBER   CELLID                    RATE       NAME                                    
 ----------------------------------------------------------------------------------------
     1      (1,1,2)               0.0000000      UZF01                                   
     2      (1,1,3)               0.0000000      UZF02                                   
     3      (1,1,4)               0.0000000      UZF03                                   
     4      (1,1,5)               0.0000000      UZF04                                   
     5      (1,1,6)               0.0000000      UZF05                                   
     6      (1,1,7)               0.0000000      UZF06                                   
     7      (1,1,8)               0.0000000      UZF07                                   
     8      (1,1,9)               0.0000000      UZF08                                   
     9      (2,1,2)               0.0000000      UZF08                                   
     10     (2,1,3)               0.0000000      UZF10                                   
     11     (2,1,4)               0.0000000      UZF11                                   
     12     (2,1,5)               0.0000000      UZF12                                   
     13     (2,1,6)               0.0000000      UZF13                                   
     14     (2,1,7)               0.0000000      UZF14                                   
     15     (2,1,8)               0.0000000      UZF15                                   
     16     (2,1,9)               0.0000000      UZF16                                   
     17     (3,1,2)               8.2980731      UZF17                                   
     18     (3,1,3)               8.1505280      UZF18                                   
     19     (3,1,4)               8.0598903      UZF19                                   
     20     (3,1,5)               8.0169329      UZF20                                   
     21     (3,1,6)               8.0169329      UZF21                                   
     22     (3,1,7)               8.0598903      UZF22                                   
     23     (3,1,8)               8.1505280      UZF23                                   
     24     (3,1,9)               8.2980731      UZF24                                   
 ----------------------------------------------------------------------------------------




 UZF-GWD PACKAGE (UZF-1) FLOW RATES   PERIOD      5   STEP       42
 ----------------------------------------------------------------------------------------
   NUMBER   CELLID                    RATE       NAME                                    
 ----------------------------------------------------------------------------------------
     1      (1,1,2)               0.0000000      UZF01                                   
     2      (1,1,3)               0.0000000      UZF02                                   
     3      (1,1,4)               0.0000000      UZF03                                   
     4      (1,1,5)               0.0000000      UZF04                                   
     5      (1,1,6)               0.0000000      UZF05                                   
     6      (1,1,7)               0.0000000      UZF06                                   
     7      (1,1,8)               0.0000000      UZF07                                   
     8      (1,1,9)               0.0000000      UZF08                                   
     9      (2,1,2)               0.0000000      UZF08                                   
     10     (2,1,3)               0.0000000      UZF10                                   
     11     (2,1,4)               0.0000000      UZF11                                   
     12     (2,1,5)               0.0000000      UZF12                                   
     13     (2,1,6)               0.0000000      UZF13                                   
     14     (2,1,7)               0.0000000      UZF14                                   
     15     (2,1,8)               0.0000000      UZF15                                   
     16     (2,1,9)               0.0000000      UZF16                                   
     17     (3,1,2)               0.0000000      UZF17                                   
     18     (3,1,3)               0.0000000      UZF18                                   
     19     (3,1,4)               0.0000000      UZF19                                   
     20     (3,1,5)               0.0000000      UZF20                                   
     21     (3,1,6)               0.0000000      UZF21                                   
     22     (3,1,7)               0.0000000      UZF22                                   
     23     (3,1,8)               0.0000000      UZF23                                   
     24     (3,1,9)               0.0000000      UZF24                                   
 ----------------------------------------------------------------------------------------




 UZF-GWET PACKAGE (UZF-1) FLOW RATES   PERIOD      5   STEP       42
 ----------------------------------------------------------------------------------------
   NUMBER   CELLID                    RATE       NAME                                    
 ----------------------------------------------------------------------------------------
     1      (1,1,2)               0.0000000      UZF01                                   
     2      (1,1,3)               0.0000000      UZF02                                   
     3      (1,1,4)               0.0000000      UZF03                                   
     4      (1,1,5)               0.0000000      UZF04                                   
     5      (1,1,6)               0.0000000      UZF05                                   
     6      (1,1,7)               0.0000000      UZF06                                   
     7      (1,1,8)               0.0000000      UZF07                                   
     8      (1,1,9)               0.0000000      UZF08                                   
     9      (2,1,2)               0.0000000      UZF08                                   
     10     (2,1,3)               0.0000000      UZF10                                   
     11     (2,1,4)               0.0000000      UZF11                                   
     12     (2,1,5)               0.0000000      UZF12                                   
     13     (2,1,6)               0.0000000      UZF13                                   
     14     (2,1,7)               0.0000000      UZF14                                   
     15     (2,1,8)               0.0000000      UZF15                                   
     16     (2,1,9)               0.0000000      UZF16                                   
     17     (3,1,2)               0.0000000      UZF17                                   
     18     (3,1,3)               0.0000000      UZF18                                   
     19     (3,1,4)               0.0000000      UZF19                                   
     20     (3,1,5)               0.0000000      UZF20                                   
     21     (3,1,6)               0.0000000      UZF21                                   
     22     (3,1,7)               0.0000000      UZF22                                   
     23     (3,1,8)               0.0000000      UZF23                                   
     24     (3,1,9)               0.0000000      UZF24                                   
 ----------------------------------------------------------------------------------------




 UZF-1 PACKAGE - SUMMARY OF FLOWS FOR EACH CONTROL VOLUME   PERIOD      5   STEP       42
 ----------------------------------------------------------------------------------------------------------------------------------------------------
                                                                                                                                           PERCENT   
   NUMBER   CELLID                  INFLOW      OUTFLOW        GWF      INFILTRATION   REJ INF        UZET       STORAGE      IN - OUT    DIFFERENCE 
 ----------------------------------------------------------------------------------------------------------------------------------------------------
     1      (1,1,2)               0.0000      -1.1760       0.0000       0.0000       0.0000       0.0000       1.1760      -6.35048E-14 -5.39994E-12
     2      (1,1,3)               0.0000      -1.1760       0.0000       0.0000       0.0000       0.0000       1.1760      -6.35048E-14 -5.39994E-12
     3      (1,1,4)               0.0000      -1.1760       0.0000       0.0000       0.0000       0.0000       1.1760      -6.35048E-14 -5.39994E-12
     4      (1,1,5)               0.0000      -1.1760       0.0000       0.0000       0.0000       0.0000       1.1760      -6.35048E-14 -5.39994E-12
     5      (1,1,6)               0.0000      -1.1760       0.0000       0.0000       0.0000       0.0000       1.1760      -6.35048E-14 -5.39994E-12
     6      (1,1,7)               0.0000      -1.1760       0.0000       0.0000       0.0000       0.0000       1.1760      -6.35048E-14 -5.39994E-12
     7      (1,1,8)               0.0000      -1.1760       0.0000       0.0000       0.0000       0.0000       1.1760      -6.35048E-14 -5.39994E-12
     8      (1,1,9)               0.0000      -1.1760       0.0000       0.0000       0.0000       0.0000       1.1760      -6.35048E-14 -5.39994E-12
     9      (2,1,2)               1.1760      -6.4035       0.0000       0.0000       0.0000      -2.61374E-02  5.2540       3.48413E-04  5.41868E-03
     10     (2,1,3)               1.1760      -6.4035       0.0000       0.0000       0.0000      -2.61374E-02  5.2540       3.48413E-04  5.41868E-03
     11     (2,1,4)               1.1760      -6.4035       0.0000       0.0000       0.0000      -2.61374E-02  5.2540       3.48413E-04  5.41868E-03
     12     (2,1,5)               1.1760      -6.4035       0.0000       0.0000       0.0000      -2.61374E-02  5.2540       3.48413E-04  5.41868E-03
     13     (2,1,6)               1.1760      -6.4035       0.0000       0.0000       0.0000      -2.61374E-02  5.2540       3.48413E-04  5.41868E-03
     14     (2,1,7)               1.1760      -6.4035       0.0000       0.0000       0.0000      -2.61374E-02  5.2540       3.48413E-04  5.41868E-03
     15     (2,1,8)               1.1760      -6.4035       0.0000       0.0000       0.0000      -2.61374E-02  5.2540       3.48413E-04  5.41868E-03
     16     (2,1,9)               1.1760      -6.4035       0.0000       0.0000       0.0000      -2.61374E-02  5.2540       3.48413E-04  5.41868E-03
     17     (3,1,2)               6.4035       0.0000      -8.2981       0.0000       0.0000       0.0000       1.8945       9.54482E-07  1.15025E-05
     18     (3,1,3)               6.4035       0.0000      -8.1505       0.0000       0.0000       0.0000       1.7470       9.54482E-07  1.17107E-05
     19     (3,1,4)               6.4035       0.0000      -8.0599       0.0000       0.0000       0.0000       1.6564       9.54482E-07  1.18424E-05
     20     (3,1,5)               6.4035       0.0000      -8.0169       0.0000       0.0000       0.0000       1.6134       9.54482E-07  1.19058E-05
     21     (3,1,6)               6.4035       0.0000      -8.0169       0.0000       0.0000       0.0000       1.6134       9.54482E-07  1.19058E-05
     22     (3,1,7)               6.4035       0.0000      -8.0599       0.0000       0.0000       0.0000       1.6564       9.54483E-07  1.18424E-05
     23     (3,1,8)               6.4035       0.0000      -8.1505       0.0000       0.0000       0.0000       1.7470       9.54483E-07  1.17107E-05
     24     (3,1,9)               6.4035       0.0000      -8.2981       0.0000       0.0000       0.0000       1.8945       9.54482E-07  1.15025E-05
 ----------------------------------------------------------------------------------------------------------------------------------------------------


1
  HEAD IN LAYER   1 AT END OF TIME STEP  42 IN STRESS PERIOD    5
  ---------------------------------------------------------------------------

            1           2           3           4           5           6           7           8           9          10
 ........................................................................................................................
   1   -25.00      -24.92      -24.87      -24.83      -24.81      -24.81      -24.83      -24.87      -24.92      -25.00    
1
  HEAD IN LAYER   2 AT END OF TIME STEP  42 IN STRESS PERIOD    5
  ---------------------------------------------------------------------------

            1           2           3           4           5           6           7           8           9          10
 ........................................................................................................................
   1   -25.00      -24.92      -24.87      -24.83      -24.81      -24.81      -24.83      -24.87      -24.92      -25.00    
1
  HEAD IN LAYER   3 AT END OF TIME STEP  42 IN STRESS PERIOD    5
  ---------------------------------------------------------------------------

            1           2           3           4           5           6           7           8           9          10
 ........................................................................................................................
   1   -25.00      -24.92      -24.87      -24.83      -24.81      -24.81      -24.83      -24.87      -24.92      -25.00    

 HEAD WILL BE SAVED ON UNIT 1022 AT END OF TIME STEP   42, STRESS PERIOD    5


  UZF-1 BUDGET FOR ENTIRE MODEL AT END OF TIME STEP   42, STRESS PERIOD   5
  ------------------------------------------------------------------------------

     CUMULATIVE UZF-1      L**3       RATES FOR THIS TIME STEP      L**3/T
     ------------------                 ------------------------

           IN:                                      IN:
           ---                                      ---
                 GWF =           0.0000                   GWF =           0.0000
        INFILTRATION =      480000.0000          INFILTRATION =           0.0000
             REJ-INF =           0.0000               REJ-INF =           0.0000
                UZET =           0.0000                  UZET =           0.0000
             STORAGE =      493149.2929               STORAGE =          65.2627

            TOTAL IN =      973149.2929              TOTAL IN =          65.2627

          OUT:                                     OUT:
          ----                                     ----
                 GWF =       77269.2748                   GWF =          65.0508
        INFILTRATION =           0.0000          INFILTRATION =           0.0000
             REJ-INF =           0.0000               REJ-INF =           0.0000
                UZET =         941.1636                  UZET =           0.2091
             STORAGE =      894878.6925               STORAGE =           0.0000

           TOTAL OUT =      973089.1309             TOTAL OUT =          65.2599

            IN - OUT =          60.1619              IN - OUT =       2.7949E-03

 PERCENT DISCREPANCY =           0.01     PERCENT DISCREPANCY =           0.00



  VOLUME BUDGET FOR ENTIRE MODEL AT END OF TIME STEP   42, STRESS PERIOD   5
  ---------------------------------------------------------------------------------------------------

     CUMULATIVE VOLUME      L**3       RATES FOR THIS TIME STEP      L**3/T          PACKAGE NAME    
     ------------------                 ------------------------                     ----------------

           IN:                                      IN:
           ---                                      ---
              STO-SS =           0.4305                STO-SS =       3.1885E-03     STORAGE         
              STO-SY =        1669.1482                STO-SY =          12.3664     STORAGE         
                 CHD =           0.0000                   CHD =           0.0000     CHD-1           
           UZF-GWRCH =       77269.2748             UZF-GWRCH =          65.0508     UZF-1           
             UZF-GWD =           0.0000               UZF-GWD =           0.0000     UZF-1           
            UZF-GWET =           0.0000              UZF-GWET =           0.0000     UZF-1           

            TOTAL IN =       78938.8535              TOTAL IN =          77.4205

          OUT:                                     OUT:
          ----                                     ----
              STO-SS =           6.2557                STO-SS =           0.0000     STORAGE         
              STO-SY =       24610.3617                STO-SY =           0.0000     STORAGE         
                 CHD =       54322.2004                   CHD =          77.4209     CHD-1           
           UZF-GWRCH =           0.0000             UZF-GWRCH =           0.0000     UZF-1           
             UZF-GWD =           0.0000               UZF-GWD =           0.0000     UZF-1           
            UZF-GWET =           0.0000              UZF-GWET =           0.0000     UZF-1           

           TOTAL OUT =       78938.8178             TOTAL OUT =          77.4209

            IN - OUT =       3.5751E-02              IN - OUT =      -3.8769E-04

 PERCENT DISCREPANCY =           0.00     PERCENT DISCREPANCY =          -0.00




         TIME SUMMARY AT END OF TIME STEP   42 IN STRESS PERIOD    5
                    SECONDS     MINUTES      HOURS       DAYS        YEARS
                    -----------------------------------------------------------
   TIME STEP LENGTH 3.45600E+06  57600.      960.00      40.000     0.10951    
 STRESS PERIOD TIME 1.45152E+08 2.41920E+06  40320.      1680.0      4.5996    
         TOTAL TIME 1.93536E+08 3.22560E+06  53760.      2240.0      6.1328    


end timestep


start timestep kper="5" kstp="43" mode="normal"

 UBDSV1 SAVING     FLOW-JA-FACE ON UNIT   1020 AT TIME STEP     43, STRESS PERIOD      5
 UBDSV06 SAVING     FLOW-JA-FACE IN MODEL GWF_1            PACKAGE UZF-1           CONNECTED TO MODEL GWF_1            PACKAGE UZF-1            ON UNIT   1014 AT TIME STEP     43, STRESS PERIOD      5
 UBDSV06 SAVING              GWF IN MODEL GWF_1            PACKAGE UZF-1           CONNECTED TO MODEL GWF_1            PACKAGE GWF_1            ON UNIT   1014 AT TIME STEP     43, STRESS PERIOD      5
 UBDSV06 SAVING     INFILTRATION IN MODEL GWF_1            PACKAGE UZF-1           CONNECTED TO MODEL GWF_1            PACKAGE UZF-1            ON UNIT   1014 AT TIME STEP     43, STRESS PERIOD      5
 UBDSV06 SAVING          REJ-INF IN MODEL GWF_1            PACKAGE UZF-1           CONNECTED TO MODEL GWF_1            PACKAGE UZF-1            ON UNIT   1014 AT TIME STEP     43, STRESS PERIOD      5
 UBDSV06 SAVING             UZET IN MODEL GWF_1            PACKAGE UZF-1           CONNECTED TO MODEL GWF_1            PACKAGE UZF-1            ON UNIT   1014 AT TIME STEP     43, STRESS PERIOD      5
 UBDSV06 SAVING          STORAGE IN MODEL GWF_1            PACKAGE UZF-1           CONNECTED TO MODEL GWF_1            PACKAGE UZF-1            ON UNIT   1014 AT TIME STEP     43, STRESS PERIOD      5

 CHD PACKAGE (CHD-1) FLOW RATES   PERIOD      5   STEP       43
 -----------------------------------------------
   NUMBER   CELLID                    RATE      
 -----------------------------------------------
     1      (3,1,1)              -37.821414     
     2      (3,1,10)             -37.821414     
 -----------------------------------------------




 UZF-GWRCH PACKAGE (UZF-1) FLOW RATES   PERIOD      5   STEP       43
 ----------------------------------------------------------------------------------------
   NUMBER   CELLID                    RATE       NAME                                    
 ----------------------------------------------------------------------------------------
     1      (1,1,2)               0.0000000      UZF01                                   
     2      (1,1,3)               0.0000000      UZF02                                   
     3      (1,1,4)               0.0000000      UZF03                                   
     4      (1,1,5)               0.0000000      UZF04                                   
     5      (1,1,6)               0.0000000      UZF05                                   
     6      (1,1,7)               0.0000000      UZF06                                   
     7      (1,1,8)               0.0000000      UZF07                                   
     8      (1,1,9)               0.0000000      UZF08                                   
     9      (2,1,2)               0.0000000      UZF08                                   
     10     (2,1,3)               0.0000000      UZF10                                   
     11     (2,1,4)               0.0000000      UZF11                                   
     12     (2,1,5)               0.0000000      UZF12                                   
     13     (2,1,6)               0.0000000      UZF13                                   
     14     (2,1,7)               0.0000000      UZF14                                   
     15     (2,1,8)               0.0000000      UZF15                                   
     16     (2,1,9)               0.0000000      UZF16                                   
     17     (3,1,2)               8.0502732      UZF17                                   
     18     (3,1,3)               7.9689572      UZF18                                   
     19     (3,1,4)               7.9207879      UZF19                                   
     20     (3,1,5)               7.8986056      UZF20                                   
     21     (3,1,6)               7.8986056      UZF21                                   
     22     (3,1,7)               7.9207879      UZF22                                   
     23     (3,1,8)               7.9689572      UZF23                                   
     24     (3,1,9)               8.0502732      UZF24                                   
 ----------------------------------------------------------------------------------------




 UZF-GWD PACKAGE (UZF-1) FLOW RATES   PERIOD      5   STEP       43
 ----------------------------------------------------------------------------------------
   NUMBER   CELLID                    RATE       NAME                                    
 ----------------------------------------------------------------------------------------
     1      (1,1,2)               0.0000000      UZF01                                   
     2      (1,1,3)               0.0000000      UZF02                                   
     3      (1,1,4)               0.0000000      UZF03                                   
     4      (1,1,5)               0.0000000      UZF04                                   
     5      (1,1,6)               0.0000000      UZF05                                   
     6      (1,1,7)               0.0000000      UZF06                                   
     7      (1,1,8)               0.0000000      UZF07                                   
     8      (1,1,9)               0.0000000      UZF08                                   
     9      (2,1,2)               0.0000000      UZF08                                   
     10     (2,1,3)               0.0000000      UZF10                                   
     11     (2,1,4)               0.0000000      UZF11                                   
     12     (2,1,5)               0.0000000      UZF12                                   
     13     (2,1,6)               0.0000000      UZF13                                   
     14     (2,1,7)               0.0000000      UZF14                                   
     15     (2,1,8)               0.0000000      UZF15                                   
     16     (2,1,9)               0.0000000      UZF16                                   
     17     (3,1,2)               0.0000000      UZF17                                   
     18     (3,1,3)               0.0000000      UZF18                                   
     19     (3,1,4)               0.0000000      UZF19                                   
     20     (3,1,5)               0.0000000      UZF20                                   
     21     (3,1,6)               0.0000000      UZF21                                   
     22     (3,1,7)               0.0000000      UZF22                                   
     23     (3,1,8)               0.0000000      UZF23                                   
     24     (3,1,9)               0.0000000      UZF24                                   
 ----------------------------------------------------------------------------------------




 UZF-GWET PACKAGE (UZF-1) FLOW RATES   PERIOD      5   STEP       43
 ----------------------------------------------------------------------------------------
   NUMBER   CELLID                    RATE       NAME                                    
 ----------------------------------------------------------------------------------------
     1      (1,1,2)               0.0000000      UZF01                                   
     2      (1,1,3)               0.0000000      UZF02                                   
     3      (1,1,4)               0.0000000      UZF03                                   
     4      (1,1,5)               0.0000000      UZF04                                   
     5      (1,1,6)               0.0000000      UZF05                                   
     6      (1,1,7)               0.0000000      UZF06                                   
     7      (1,1,8)               0.0000000      UZF07                                   
     8      (1,1,9)               0.0000000      UZF08                                   
     9      (2,1,2)               0.0000000      UZF08                                   
     10     (2,1,3)               0.0000000      UZF10                                   
     11     (2,1,4)               0.0000000      UZF11                                   
     12     (2,1,5)               0.0000000      UZF12                                   
     13     (2,1,6)               0.0000000      UZF13                                   
     14     (2,1,7)               0.0000000      UZF14                                   
     15     (2,1,8)               0.0000000      UZF15                                   
     16     (2,1,9)               0.0000000      UZF16                                   
     17     (3,1,2)               0.0000000      UZF17                                   
     18     (3,1,3)               0.0000000      UZF18                                   
     19     (3,1,4)               0.0000000      UZF19                                   
     20     (3,1,5)               0.0000000      UZF20                                   
     21     (3,1,6)               0.0000000      UZF21                                   
     22     (3,1,7)               0.0000000      UZF22                                   
     23     (3,1,8)               0.0000000      UZF23                                   
     24     (3,1,9)               0.0000000      UZF24                                   
 ----------------------------------------------------------------------------------------




 UZF-1 PACKAGE - SUMMARY OF FLOWS FOR EACH CONTROL VOLUME   PERIOD      5   STEP       43
 ----------------------------------------------------------------------------------------------------------------------------------------------------
                                                                                                                                           PERCENT   
   NUMBER   CELLID                  INFLOW      OUTFLOW        GWF      INFILTRATION   REJ INF        UZET       STORAGE      IN - OUT    DIFFERENCE 
 ----------------------------------------------------------------------------------------------------------------------------------------------------
     1      (1,1,2)               0.0000      -1.1760       0.0000       0.0000       0.0000       0.0000       1.1760       2.33147E-14  1.98249E-12
     2      (1,1,3)               0.0000      -1.1760       0.0000       0.0000       0.0000       0.0000       1.1760       2.33147E-14  1.98249E-12
     3      (1,1,4)               0.0000      -1.1760       0.0000       0.0000       0.0000       0.0000       1.1760       2.33147E-14  1.98249E-12
     4      (1,1,5)               0.0000      -1.1760       0.0000       0.0000       0.0000       0.0000       1.1760       2.33147E-14  1.98249E-12
     5      (1,1,6)               0.0000      -1.1760       0.0000       0.0000       0.0000       0.0000       1.1760       2.33147E-14  1.98249E-12
     6      (1,1,7)               0.0000      -1.1760       0.0000       0.0000       0.0000       0.0000       1.1760       2.33147E-14  1.98249E-12
     7      (1,1,8)               0.0000      -1.1760       0.0000       0.0000       0.0000       0.0000       1.1760       2.33147E-14  1.98249E-12
     8      (1,1,9)               0.0000      -1.1760       0.0000       0.0000       0.0000       0.0000       1.1760       2.33147E-14  1.98249E-12
     9      (2,1,2)               1.1760      -6.4015       0.0000       0.0000       0.0000      -2.50676E-02  5.2509       3.48358E-04  5.42042E-03
     10     (2,1,3)               1.1760      -6.4015       0.0000       0.0000       0.0000      -2.50676E-02  5.2509       3.48358E-04  5.42042E-03
     11     (2,1,4)               1.1760      -6.4015       0.0000       0.0000       0.0000      -2.50676E-02  5.2509       3.48358E-04  5.42042E-03
     12     (2,1,5)               1.1760      -6.4015       0.0000       0.0000       0.0000      -2.50676E-02  5.2509       3.48358E-04  5.42042E-03
     13     (2,1,6)               1.1760      -6.4015       0.0000       0.0000       0.0000      -2.50676E-02  5.2509       3.48358E-04  5.42042E-03
     14     (2,1,7)               1.1760      -6.4015       0.0000       0.0000       0.0000      -2.50676E-02  5.2509       3.48358E-04  5.42042E-03
     15     (2,1,8)               1.1760      -6.4015       0.0000       0.0000       0.0000      -2.50676E-02  5.2509       3.48358E-04  5.42042E-03
     16     (2,1,9)               1.1760      -6.4015       0.0000       0.0000       0.0000      -2.50676E-02  5.2509       3.48358E-04  5.42042E-03
     17     (3,1,2)               6.4015       0.0000      -8.0503       0.0000       0.0000       0.0000       1.6488       9.54251E-07  1.18537E-05
     18     (3,1,3)               6.4015       0.0000      -7.9690       0.0000       0.0000       0.0000       1.5674       9.54252E-07  1.19746E-05
     19     (3,1,4)               6.4015       0.0000      -7.9208       0.0000       0.0000       0.0000       1.5193       9.54251E-07  1.20474E-05
     20     (3,1,5)               6.4015       0.0000      -7.8986       0.0000       0.0000       0.0000       1.4971       9.54251E-07  1.20813E-05
     21     (3,1,6)               6.4015       0.0000      -7.8986       0.0000       0.0000       0.0000       1.4971       9.54251E-07  1.20813E-05
     22     (3,1,7)               6.4015       0.0000      -7.9208       0.0000       0.0000       0.0000       1.5193       9.54251E-07  1.20474E-05
     23     (3,1,8)               6.4015       0.0000      -7.9690       0.0000       0.0000       0.0000       1.5674       9.54251E-07  1.19746E-05
     24     (3,1,9)               6.4015       0.0000      -8.0503       0.0000       0.0000       0.0000       1.6488       9.54251E-07  1.18537E-05
 ----------------------------------------------------------------------------------------------------------------------------------------------------


1
  HEAD IN LAYER   1 AT END OF TIME STEP  43 IN STRESS PERIOD    5
  ---------------------------------------------------------------------------

            1           2           3           4           5           6           7           8           9          10
 ........................................................................................................................
   1   -25.00      -24.93      -24.87      -24.83      -24.81      -24.81      -24.83      -24.87      -24.93      -25.00    
1
  HEAD IN LAYER   2 AT END OF TIME STEP  43 IN STRESS PERIOD    5
  ---------------------------------------------------------------------------

            1           2           3           4           5           6           7           8           9          10
 ........................................................................................................................
   1   -25.00      -24.93      -24.87      -24.83      -24.81      -24.81      -24.83      -24.87      -24.93      -25.00    
1
  HEAD IN LAYER   3 AT END OF TIME STEP  43 IN STRESS PERIOD    5
  ---------------------------------------------------------------------------

            1           2           3           4           5           6           7           8           9          10
 ........................................................................................................................
   1   -25.00      -24.93      -24.87      -24.83      -24.81      -24.81      -24.83      -24.87      -24.93      -25.00    

 HEAD WILL BE SAVED ON UNIT 1022 AT END OF TIME STEP   43, STRESS PERIOD    5


  UZF-1 BUDGET FOR ENTIRE MODEL AT END OF TIME STEP   43, STRESS PERIOD   5
  ------------------------------------------------------------------------------

     CUMULATIVE UZF-1      L**3       RATES FOR THIS TIME STEP      L**3/T
     ------------------                 ------------------------

           IN:                                      IN:
           ---                                      ---
                 GWF =           0.0000                   GWF =           0.0000
        INFILTRATION =      480000.0000          INFILTRATION =           0.0000
             REJ-INF =           0.0000               REJ-INF =           0.0000
                UZET =           0.0000                  UZET =           0.0000
             STORAGE =      495704.5162               STORAGE =          63.8806

            TOTAL IN =      975704.5162              TOTAL IN =          63.8806

          OUT:                                     OUT:
          ----                                     ----
                 GWF =       79816.3648                   GWF =          63.6772
        INFILTRATION =           0.0000          INFILTRATION =           0.0000
             REJ-INF =           0.0000               REJ-INF =           0.0000
                UZET =         949.1852                  UZET =           0.2005
             STORAGE =      894878.6925               STORAGE =           0.0000

           TOTAL OUT =      975644.2425             TOTAL OUT =          63.8778

            IN - OUT =          60.2737              IN - OUT =       2.7945E-03

 PERCENT DISCREPANCY =           0.01     PERCENT DISCREPANCY =           0.00



  VOLUME BUDGET FOR ENTIRE MODEL AT END OF TIME STEP   43, STRESS PERIOD   5
  ---------------------------------------------------------------------------------------------------

     CUMULATIVE VOLUME      L**3       RATES FOR THIS TIME STEP      L**3/T          PACKAGE NAME    
     ------------------                 ------------------------                     ----------------

           IN:                                      IN:
           ---                                      ---
              STO-SS =           0.5538                STO-SS =       3.0825E-03     STORAGE         
              STO-SY =        2147.6331                STO-SY =          11.9621     STORAGE         
                 CHD =           0.0000                   CHD =           0.0000     CHD-1           
           UZF-GWRCH =       79816.3648             UZF-GWRCH =          63.6772     UZF-1           
             UZF-GWD =           0.0000               UZF-GWD =           0.0000     UZF-1           
            UZF-GWET =           0.0000              UZF-GWET =           0.0000     UZF-1           

            TOTAL IN =       81964.5516              TOTAL IN =          75.6425

          OUT:                                     OUT:
          ----                                     ----
              STO-SS =           6.2557                STO-SS =           0.0000     STORAGE         
              STO-SY =       24610.3617                STO-SY =           0.0000     STORAGE         
                 CHD =       57347.9135                   CHD =          75.6428     CHD-1           
           UZF-GWRCH =           0.0000             UZF-GWRCH =           0.0000     UZF-1           
             UZF-GWD =           0.0000               UZF-GWD =           0.0000     UZF-1           
            UZF-GWET =           0.0000              UZF-GWET =           0.0000     UZF-1           

           TOTAL OUT =       81964.5309             TOTAL OUT =          75.6428

            IN - OUT =       2.0722E-02              IN - OUT =      -3.7573E-04

 PERCENT DISCREPANCY =           0.00     PERCENT DISCREPANCY =          -0.00




         TIME SUMMARY AT END OF TIME STEP   43 IN STRESS PERIOD    5
                    SECONDS     MINUTES      HOURS       DAYS        YEARS
                    -----------------------------------------------------------
   TIME STEP LENGTH 3.45600E+06  57600.      960.00      40.000     0.10951    
 STRESS PERIOD TIME 1.48608E+08 2.47680E+06  41280.      1720.0      4.7091    
         TOTAL TIME 1.96992E+08 3.28320E+06  54720.      2280.0      6.2423    


end timestep


start timestep kper="5" kstp="44" mode="normal"

 UBDSV1 SAVING     FLOW-JA-FACE ON UNIT   1020 AT TIME STEP     44, STRESS PERIOD      5
 UBDSV06 SAVING     FLOW-JA-FACE IN MODEL GWF_1            PACKAGE UZF-1           CONNECTED TO MODEL GWF_1            PACKAGE UZF-1            ON UNIT   1014 AT TIME STEP     44, STRESS PERIOD      5
 UBDSV06 SAVING              GWF IN MODEL GWF_1            PACKAGE UZF-1           CONNECTED TO MODEL GWF_1            PACKAGE GWF_1            ON UNIT   1014 AT TIME STEP     44, STRESS PERIOD      5
 UBDSV06 SAVING     INFILTRATION IN MODEL GWF_1            PACKAGE UZF-1           CONNECTED TO MODEL GWF_1            PACKAGE UZF-1            ON UNIT   1014 AT TIME STEP     44, STRESS PERIOD      5
 UBDSV06 SAVING          REJ-INF IN MODEL GWF_1            PACKAGE UZF-1           CONNECTED TO MODEL GWF_1            PACKAGE UZF-1            ON UNIT   1014 AT TIME STEP     44, STRESS PERIOD      5
 UBDSV06 SAVING             UZET IN MODEL GWF_1            PACKAGE UZF-1           CONNECTED TO MODEL GWF_1            PACKAGE UZF-1            ON UNIT   1014 AT TIME STEP     44, STRESS PERIOD      5
 UBDSV06 SAVING          STORAGE IN MODEL GWF_1            PACKAGE UZF-1           CONNECTED TO MODEL GWF_1            PACKAGE UZF-1            ON UNIT   1014 AT TIME STEP     44, STRESS PERIOD      5

 CHD PACKAGE (CHD-1) FLOW RATES   PERIOD      5   STEP       44
 -----------------------------------------------
   NUMBER   CELLID                    RATE      
 -----------------------------------------------
     1      (3,1,1)              -37.114265     
     2      (3,1,10)             -37.114265     
 -----------------------------------------------




 UZF-GWRCH PACKAGE (UZF-1) FLOW RATES   PERIOD      5   STEP       44
 ----------------------------------------------------------------------------------------
   NUMBER   CELLID                    RATE       NAME                                    
 ----------------------------------------------------------------------------------------
     1      (1,1,2)               0.0000000      UZF01                                   
     2      (1,1,3)               0.0000000      UZF02                                   
     3      (1,1,4)               0.0000000      UZF03                                   
     4      (1,1,5)               0.0000000      UZF04                                   
     5      (1,1,6)               0.0000000      UZF05                                   
     6      (1,1,7)               0.0000000      UZF06                                   
     7      (1,1,8)               0.0000000      UZF07                                   
     8      (1,1,9)               0.0000000      UZF08                                   
     9      (2,1,2)               0.0000000      UZF08                                   
     10     (2,1,3)               0.0000000      UZF10                                   
     11     (2,1,4)               0.0000000      UZF11                                   
     12     (2,1,5)               0.0000000      UZF12                                   
     13     (2,1,6)               0.0000000      UZF13                                   
     14     (2,1,7)               0.0000000      UZF14                                   
     15     (2,1,8)               0.0000000      UZF15                                   
     16     (2,1,9)               0.0000000      UZF16                                   
     17     (3,1,2)               8.0723738      UZF17                                   
     18     (3,1,3)               7.9970061      UZF18                                   
     19     (3,1,4)               7.9482234      UZF19                                   
     20     (3,1,5)               7.9246035      UZF20                                   
     21     (3,1,6)               7.9246035      UZF21                                   
     22     (3,1,7)               7.9482234      UZF22                                   
     23     (3,1,8)               7.9970061      UZF23                                   
     24     (3,1,9)               8.0723738      UZF24                                   
 ----------------------------------------------------------------------------------------




 UZF-GWD PACKAGE (UZF-1) FLOW RATES   PERIOD      5   STEP       44
 ----------------------------------------------------------------------------------------
   NUMBER   CELLID                    RATE       NAME                                    
 ----------------------------------------------------------------------------------------
     1      (1,1,2)               0.0000000      UZF01                                   
     2      (1,1,3)               0.0000000      UZF02                                   
     3      (1,1,4)               0.0000000      UZF03                                   
     4      (1,1,5)               0.0000000      UZF04                                   
     5      (1,1,6)               0.0000000      UZF05                                   
     6      (1,1,7)               0.0000000      UZF06                                   
     7      (1,1,8)               0.0000000      UZF07                                   
     8      (1,1,9)               0.0000000      UZF08                                   
     9      (2,1,2)               0.0000000      UZF08                                   
     10     (2,1,3)               0.0000000      UZF10                                   
     11     (2,1,4)               0.0000000      UZF11                                   
     12     (2,1,5)               0.0000000      UZF12                                   
     13     (2,1,6)               0.0000000      UZF13                                   
     14     (2,1,7)               0.0000000      UZF14                                   
     15     (2,1,8)               0.0000000      UZF15                                   
     16     (2,1,9)               0.0000000      UZF16                                   
     17     (3,1,2)               0.0000000      UZF17                                   
     18     (3,1,3)               0.0000000      UZF18                                   
     19     (3,1,4)               0.0000000      UZF19                                   
     20     (3,1,5)               0.0000000      UZF20                                   
     21     (3,1,6)               0.0000000      UZF21                                   
     22     (3,1,7)               0.0000000      UZF22                                   
     23     (3,1,8)               0.0000000      UZF23                                   
     24     (3,1,9)               0.0000000      UZF24                                   
 ----------------------------------------------------------------------------------------




 UZF-GWET PACKAGE (UZF-1) FLOW RATES   PERIOD      5   STEP       44
 ----------------------------------------------------------------------------------------
   NUMBER   CELLID                    RATE       NAME                                    
 ----------------------------------------------------------------------------------------
     1      (1,1,2)               0.0000000      UZF01                                   
     2      (1,1,3)               0.0000000      UZF02                                   
     3      (1,1,4)               0.0000000      UZF03                                   
     4      (1,1,5)               0.0000000      UZF04                                   
     5      (1,1,6)               0.0000000      UZF05                                   
     6      (1,1,7)               0.0000000      UZF06                                   
     7      (1,1,8)               0.0000000      UZF07                                   
     8      (1,1,9)               0.0000000      UZF08                                   
     9      (2,1,2)               0.0000000      UZF08                                   
     10     (2,1,3)               0.0000000      UZF10                                   
     11     (2,1,4)               0.0000000      UZF11                                   
     12     (2,1,5)               0.0000000      UZF12                                   
     13     (2,1,6)               0.0000000      UZF13                                   
     14     (2,1,7)               0.0000000      UZF14                                   
     15     (2,1,8)               0.0000000      UZF15                                   
     16     (2,1,9)               0.0000000      UZF16                                   
     17     (3,1,2)               0.0000000      UZF17                                   
     18     (3,1,3)               0.0000000      UZF18                                   
     19     (3,1,4)               0.0000000      UZF19                                   
     20     (3,1,5)               0.0000000      UZF20                                   
     21     (3,1,6)               0.0000000      UZF21                                   
     22     (3,1,7)               0.0000000      UZF22                                   
     23     (3,1,8)               0.0000000      UZF23                                   
     24     (3,1,9)               0.0000000      UZF24                                   
 ----------------------------------------------------------------------------------------




 UZF-1 PACKAGE - SUMMARY OF FLOWS FOR EACH CONTROL VOLUME   PERIOD      5   STEP       44
 ----------------------------------------------------------------------------------------------------------------------------------------------------
                                                                                                                                           PERCENT   
   NUMBER   CELLID                  INFLOW      OUTFLOW        GWF      INFILTRATION   REJ INF        UZET       STORAGE      IN - OUT    DIFFERENCE 
 ----------------------------------------------------------------------------------------------------------------------------------------------------
     1      (1,1,2)               0.0000      -1.1760       0.0000       0.0000       0.0000       0.0000       1.1760       2.33147E-14  1.98249E-12
     2      (1,1,3)               0.0000      -1.1760       0.0000       0.0000       0.0000       0.0000       1.1760       2.33147E-14  1.98249E-12
     3      (1,1,4)               0.0000      -1.1760       0.0000       0.0000       0.0000       0.0000       1.1760       2.33147E-14  1.98249E-12
     4      (1,1,5)               0.0000      -1.1760       0.0000       0.0000       0.0000       0.0000       1.1760       2.33147E-14  1.98249E-12
     5      (1,1,6)               0.0000      -1.1760       0.0000       0.0000       0.0000       0.0000       1.1760       2.33147E-14  1.98249E-12
     6      (1,1,7)               0.0000      -1.1760       0.0000       0.0000       0.0000       0.0000       1.1760       2.33147E-14  1.98249E-12
     7      (1,1,8)               0.0000      -1.1760       0.0000       0.0000       0.0000       0.0000       1.1760       2.33147E-14  1.98249E-12
     8      (1,1,9)               0.0000      -1.1760       0.0000       0.0000       0.0000       0.0000       1.1760       2.33147E-14  1.98249E-12
     9      (2,1,2)               1.1760      -5.7446       0.0000       0.0000       0.0000      -2.39978E-02  4.5929       3.47877E-04  6.03039E-03
     10     (2,1,3)               1.1760      -5.7446       0.0000       0.0000       0.0000      -2.39978E-02  4.5929       3.47877E-04  6.03039E-03
     11     (2,1,4)               1.1760      -5.7446       0.0000       0.0000       0.0000      -2.39978E-02  4.5929       3.47877E-04  6.03039E-03
     12     (2,1,5)               1.1760      -5.7446       0.0000       0.0000       0.0000      -2.39978E-02  4.5929       3.47877E-04  6.03039E-03
     13     (2,1,6)               1.1760      -5.7446       0.0000       0.0000       0.0000      -2.39978E-02  4.5929       3.47877E-04  6.03039E-03
     14     (2,1,7)               1.1760      -5.7446       0.0000       0.0000       0.0000      -2.39978E-02  4.5929       3.47877E-04  6.03039E-03
     15     (2,1,8)               1.1760      -5.7446       0.0000       0.0000       0.0000      -2.39978E-02  4.5929       3.47877E-04  6.03039E-03
     16     (2,1,9)               1.1760      -5.7446       0.0000       0.0000       0.0000      -2.39978E-02  4.5929       3.47877E-04  6.03039E-03
     17     (3,1,2)               5.7446       0.0000      -8.0724       0.0000       0.0000       0.0000       2.3278       8.88554E-07  1.10073E-05
     18     (3,1,3)               5.7446       0.0000      -7.9970       0.0000       0.0000       0.0000       2.2525       8.88553E-07  1.11111E-05
     19     (3,1,4)               5.7446       0.0000      -7.9482       0.0000       0.0000       0.0000       2.2037       8.88554E-07  1.11793E-05
     20     (3,1,5)               5.7446       0.0000      -7.9246       0.0000       0.0000       0.0000       2.1800       8.88554E-07  1.12126E-05
     21     (3,1,6)               5.7446       0.0000      -7.9246       0.0000       0.0000       0.0000       2.1800       8.88554E-07  1.12126E-05
     22     (3,1,7)               5.7446       0.0000      -7.9482       0.0000       0.0000       0.0000       2.2037       8.88554E-07  1.11793E-05
     23     (3,1,8)               5.7446       0.0000      -7.9970       0.0000       0.0000       0.0000       2.2525       8.88554E-07  1.11111E-05
     24     (3,1,9)               5.7446       0.0000      -8.0724       0.0000       0.0000       0.0000       2.3278       8.88554E-07  1.10073E-05
 ----------------------------------------------------------------------------------------------------------------------------------------------------


1
  HEAD IN LAYER   1 AT END OF TIME STEP  44 IN STRESS PERIOD    5
  ---------------------------------------------------------------------------

            1           2           3           4           5           6           7           8           9          10
 ........................................................................................................................
   1   -25.00      -24.93      -24.87      -24.83      -24.82      -24.82      -24.83      -24.87      -24.93      -25.00    
1
  HEAD IN LAYER   2 AT END OF TIME STEP  44 IN STRESS PERIOD    5
  ---------------------------------------------------------------------------

            1           2           3           4           5           6           7           8           9          10
 ........................................................................................................................
   1   -25.00      -24.93      -24.87      -24.83      -24.82      -24.82      -24.83      -24.87      -24.93      -25.00    
1
  HEAD IN LAYER   3 AT END OF TIME STEP  44 IN STRESS PERIOD    5
  ---------------------------------------------------------------------------

            1           2           3           4           5           6           7           8           9          10
 ........................................................................................................................
   1   -25.00      -24.93      -24.87      -24.83      -24.82      -24.82      -24.83      -24.87      -24.93      -25.00    

 HEAD WILL BE SAVED ON UNIT 1022 AT END OF TIME STEP   44, STRESS PERIOD    5


  UZF-1 BUDGET FOR ENTIRE MODEL AT END OF TIME STEP   44, STRESS PERIOD   5
  ------------------------------------------------------------------------------

     CUMULATIVE UZF-1      L**3       RATES FOR THIS TIME STEP      L**3/T
     ------------------                 ------------------------

           IN:                                      IN:
           ---                                      ---
                 GWF =           0.0000                   GWF =           0.0000
        INFILTRATION =      480000.0000          INFILTRATION =           0.0000
             REJ-INF =           0.0000               REJ-INF =           0.0000
                UZET =           0.0000                  UZET =           0.0000
             STORAGE =      498267.6836               STORAGE =          64.0792

            TOTAL IN =      978267.6836              TOTAL IN =          64.0792

          OUT:                                     OUT:
          ----                                     ----
                 GWF =       82371.7413                   GWF =          63.8844
        INFILTRATION =           0.0000          INFILTRATION =           0.0000
             REJ-INF =           0.0000               REJ-INF =           0.0000
                UZET =         956.8645                  UZET =           0.1920
             STORAGE =      894878.6925               STORAGE =           0.0000

           TOTAL OUT =      978207.2983             TOTAL OUT =          64.0764

            IN - OUT =          60.3853              IN - OUT =       2.7901E-03

 PERCENT DISCREPANCY =           0.01     PERCENT DISCREPANCY =           0.00



  VOLUME BUDGET FOR ENTIRE MODEL AT END OF TIME STEP   44, STRESS PERIOD   5
  ---------------------------------------------------------------------------------------------------

     CUMULATIVE VOLUME      L**3       RATES FOR THIS TIME STEP      L**3/T          PACKAGE NAME    
     ------------------                 ------------------------                     ----------------

           IN:                                      IN:
           ---                                      ---
              STO-SS =           0.6603                STO-SS =       2.6639E-03     STORAGE         
              STO-SY =        2561.2781                STO-SY =          10.3411     STORAGE         
                 CHD =           0.0000                   CHD =           0.0000     CHD-1           
           UZF-GWRCH =       82371.7413             UZF-GWRCH =          63.8844     UZF-1           
             UZF-GWD =           0.0000               UZF-GWD =           0.0000     UZF-1           
            UZF-GWET =           0.0000              UZF-GWET =           0.0000     UZF-1           

            TOTAL IN =       84933.6797              TOTAL IN =          74.2282

          OUT:                                     OUT:
          ----                                     ----
              STO-SS =           6.2557                STO-SS =           0.0000     STORAGE         
              STO-SY =       24610.3617                STO-SY =           0.0000     STORAGE         
                 CHD =       60317.0547                   CHD =          74.2285     CHD-1           
           UZF-GWRCH =           0.0000             UZF-GWRCH =           0.0000     UZF-1           
             UZF-GWD =           0.0000               UZF-GWD =           0.0000     UZF-1           
            UZF-GWET =           0.0000              UZF-GWET =           0.0000     UZF-1           

           TOTAL OUT =       84933.6721             TOTAL OUT =          74.2285

            IN - OUT =       7.6045E-03              IN - OUT =      -3.2794E-04

 PERCENT DISCREPANCY =           0.00     PERCENT DISCREPANCY =          -0.00




         TIME SUMMARY AT END OF TIME STEP   44 IN STRESS PERIOD    5
                    SECONDS     MINUTES      HOURS       DAYS        YEARS
                    -----------------------------------------------------------
   TIME STEP LENGTH 3.45600E+06  57600.      960.00      40.000     0.10951    
 STRESS PERIOD TIME 1.52064E+08 2.53440E+06  42240.      1760.0      4.8186    
         TOTAL TIME 2.00448E+08 3.34080E+06  55680.      2320.0      6.3518    


end timestep


start timestep kper="5" kstp="45" mode="normal"

 UBDSV1 SAVING     FLOW-JA-FACE ON UNIT   1020 AT TIME STEP     45, STRESS PERIOD      5
 UBDSV06 SAVING     FLOW-JA-FACE IN MODEL GWF_1            PACKAGE UZF-1           CONNECTED TO MODEL GWF_1            PACKAGE UZF-1            ON UNIT   1014 AT TIME STEP     45, STRESS PERIOD      5
 UBDSV06 SAVING              GWF IN MODEL GWF_1            PACKAGE UZF-1           CONNECTED TO MODEL GWF_1            PACKAGE GWF_1            ON UNIT   1014 AT TIME STEP     45, STRESS PERIOD      5
 UBDSV06 SAVING     INFILTRATION IN MODEL GWF_1            PACKAGE UZF-1           CONNECTED TO MODEL GWF_1            PACKAGE UZF-1            ON UNIT   1014 AT TIME STEP     45, STRESS PERIOD      5
 UBDSV06 SAVING          REJ-INF IN MODEL GWF_1            PACKAGE UZF-1           CONNECTED TO MODEL GWF_1            PACKAGE UZF-1            ON UNIT   1014 AT TIME STEP     45, STRESS PERIOD      5
 UBDSV06 SAVING             UZET IN MODEL GWF_1            PACKAGE UZF-1           CONNECTED TO MODEL GWF_1            PACKAGE UZF-1            ON UNIT   1014 AT TIME STEP     45, STRESS PERIOD      5
 UBDSV06 SAVING          STORAGE IN MODEL GWF_1            PACKAGE UZF-1           CONNECTED TO MODEL GWF_1            PACKAGE UZF-1            ON UNIT   1014 AT TIME STEP     45, STRESS PERIOD      5

 CHD PACKAGE (CHD-1) FLOW RATES   PERIOD      5   STEP       45
 -----------------------------------------------
   NUMBER   CELLID                    RATE      
 -----------------------------------------------
     1      (3,1,1)              -36.523931     
     2      (3,1,10)             -36.523931     
 -----------------------------------------------




 UZF-GWRCH PACKAGE (UZF-1) FLOW RATES   PERIOD      5   STEP       45
 ----------------------------------------------------------------------------------------
   NUMBER   CELLID                    RATE       NAME                                    
 ----------------------------------------------------------------------------------------
     1      (1,1,2)               0.0000000      UZF01                                   
     2      (1,1,3)               0.0000000      UZF02                                   
     3      (1,1,4)               0.0000000      UZF03                                   
     4      (1,1,5)               0.0000000      UZF04                                   
     5      (1,1,6)               0.0000000      UZF05                                   
     6      (1,1,7)               0.0000000      UZF06                                   
     7      (1,1,8)               0.0000000      UZF07                                   
     8      (1,1,9)               0.0000000      UZF08                                   
     9      (2,1,2)               0.0000000      UZF08                                   
     10     (2,1,3)               0.0000000      UZF10                                   
     11     (2,1,4)               0.0000000      UZF11                                   
     12     (2,1,5)               0.0000000      UZF12                                   
     13     (2,1,6)               0.0000000      UZF13                                   
     14     (2,1,7)               0.0000000      UZF14                                   
     15     (2,1,8)               0.0000000      UZF15                                   
     16     (2,1,9)               0.0000000      UZF16                                   
     17     (3,1,2)               8.0856236      UZF17                                   
     18     (3,1,3)               8.0187236      UZF18                                   
     19     (3,1,4)               7.9729594      UZF19                                   
     20     (3,1,5)               7.9499866      UZF20                                   
     21     (3,1,6)               7.9499866      UZF21                                   
     22     (3,1,7)               7.9729594      UZF22                                   
     23     (3,1,8)               8.0187236      UZF23                                   
     24     (3,1,9)               8.0856236      UZF24                                   
 ----------------------------------------------------------------------------------------




 UZF-GWD PACKAGE (UZF-1) FLOW RATES   PERIOD      5   STEP       45
 ----------------------------------------------------------------------------------------
   NUMBER   CELLID                    RATE       NAME                                    
 ----------------------------------------------------------------------------------------
     1      (1,1,2)               0.0000000      UZF01                                   
     2      (1,1,3)               0.0000000      UZF02                                   
     3      (1,1,4)               0.0000000      UZF03                                   
     4      (1,1,5)               0.0000000      UZF04                                   
     5      (1,1,6)               0.0000000      UZF05                                   
     6      (1,1,7)               0.0000000      UZF06                                   
     7      (1,1,8)               0.0000000      UZF07                                   
     8      (1,1,9)               0.0000000      UZF08                                   
     9      (2,1,2)               0.0000000      UZF08                                   
     10     (2,1,3)               0.0000000      UZF10                                   
     11     (2,1,4)               0.0000000      UZF11                                   
     12     (2,1,5)               0.0000000      UZF12                                   
     13     (2,1,6)               0.0000000      UZF13                                   
     14     (2,1,7)               0.0000000      UZF14                                   
     15     (2,1,8)               0.0000000      UZF15                                   
     16     (2,1,9)               0.0000000      UZF16                                   
     17     (3,1,2)               0.0000000      UZF17                                   
     18     (3,1,3)               0.0000000      UZF18                                   
     19     (3,1,4)               0.0000000      UZF19                                   
     20     (3,1,5)               0.0000000      UZF20                                   
     21     (3,1,6)               0.0000000      UZF21                                   
     22     (3,1,7)               0.0000000      UZF22                                   
     23     (3,1,8)               0.0000000      UZF23                                   
     24     (3,1,9)               0.0000000      UZF24                                   
 ----------------------------------------------------------------------------------------




 UZF-GWET PACKAGE (UZF-1) FLOW RATES   PERIOD      5   STEP       45
 ----------------------------------------------------------------------------------------
   NUMBER   CELLID                    RATE       NAME                                    
 ----------------------------------------------------------------------------------------
     1      (1,1,2)               0.0000000      UZF01                                   
     2      (1,1,3)               0.0000000      UZF02                                   
     3      (1,1,4)               0.0000000      UZF03                                   
     4      (1,1,5)               0.0000000      UZF04                                   
     5      (1,1,6)               0.0000000      UZF05                                   
     6      (1,1,7)               0.0000000      UZF06                                   
     7      (1,1,8)               0.0000000      UZF07                                   
     8      (1,1,9)               0.0000000      UZF08                                   
     9      (2,1,2)               0.0000000      UZF08                                   
     10     (2,1,3)               0.0000000      UZF10                                   
     11     (2,1,4)               0.0000000      UZF11                                   
     12     (2,1,5)               0.0000000      UZF12                                   
     13     (2,1,6)               0.0000000      UZF13                                   
     14     (2,1,7)               0.0000000      UZF14                                   
     15     (2,1,8)               0.0000000      UZF15                                   
     16     (2,1,9)               0.0000000      UZF16                                   
     17     (3,1,2)               0.0000000      UZF17                                   
     18     (3,1,3)               0.0000000      UZF18                                   
     19     (3,1,4)               0.0000000      UZF19                                   
     20     (3,1,5)               0.0000000      UZF20                                   
     21     (3,1,6)               0.0000000      UZF21                                   
     22     (3,1,7)               0.0000000      UZF22                                   
     23     (3,1,8)               0.0000000      UZF23                                   
     24     (3,1,9)               0.0000000      UZF24                                   
 ----------------------------------------------------------------------------------------




 UZF-1 PACKAGE - SUMMARY OF FLOWS FOR EACH CONTROL VOLUME   PERIOD      5   STEP       45
 ----------------------------------------------------------------------------------------------------------------------------------------------------
                                                                                                                                           PERCENT   
   NUMBER   CELLID                  INFLOW      OUTFLOW        GWF      INFILTRATION   REJ INF        UZET       STORAGE      IN - OUT    DIFFERENCE 
 ----------------------------------------------------------------------------------------------------------------------------------------------------
     1      (1,1,2)               0.0000      -1.1760       0.0000       0.0000       0.0000       0.0000       1.1760       2.33147E-14  1.98249E-12
     2      (1,1,3)               0.0000      -1.1760       0.0000       0.0000       0.0000       0.0000       1.1760       2.33147E-14  1.98249E-12
     3      (1,1,4)               0.0000      -1.1760       0.0000       0.0000       0.0000       0.0000       1.1760       2.33147E-14  1.98249E-12
     4      (1,1,5)               0.0000      -1.1760       0.0000       0.0000       0.0000       0.0000       1.1760       2.33147E-14  1.98249E-12
     5      (1,1,6)               0.0000      -1.1760       0.0000       0.0000       0.0000       0.0000       1.1760       2.33147E-14  1.98249E-12
     6      (1,1,7)               0.0000      -1.1760       0.0000       0.0000       0.0000       0.0000       1.1760       2.33147E-14  1.98249E-12
     7      (1,1,8)               0.0000      -1.1760       0.0000       0.0000       0.0000       0.0000       1.1760       2.33147E-14  1.98249E-12
     8      (1,1,9)               0.0000      -1.1760       0.0000       0.0000       0.0000       0.0000       1.1760       2.33147E-14  1.98249E-12
     9      (2,1,2)               1.1760      -4.7678       0.0000       0.0000       0.0000      -2.29280E-02  3.6150       3.46971E-04  7.24234E-03
     10     (2,1,3)               1.1760      -4.7678       0.0000       0.0000       0.0000      -2.29280E-02  3.6150       3.46971E-04  7.24234E-03
     11     (2,1,4)               1.1760      -4.7678       0.0000       0.0000       0.0000      -2.29280E-02  3.6150       3.46971E-04  7.24234E-03
     12     (2,1,5)               1.1760      -4.7678       0.0000       0.0000       0.0000      -2.29280E-02  3.6150       3.46971E-04  7.24234E-03
     13     (2,1,6)               1.1760      -4.7678       0.0000       0.0000       0.0000      -2.29280E-02  3.6150       3.46971E-04  7.24234E-03
     14     (2,1,7)               1.1760      -4.7678       0.0000       0.0000       0.0000      -2.29280E-02  3.6150       3.46971E-04  7.24234E-03
     15     (2,1,8)               1.1760      -4.7678       0.0000       0.0000       0.0000      -2.29280E-02  3.6150       3.46971E-04  7.24234E-03
     16     (2,1,9)               1.1760      -4.7678       0.0000       0.0000       0.0000      -2.29280E-02  3.6150       3.46971E-04  7.24234E-03
     17     (3,1,2)               4.7678       0.0000      -8.0856       0.0000       0.0000       0.0000       3.3179       7.79556E-07  9.64126E-06
     18     (3,1,3)               4.7678       0.0000      -8.0187       0.0000       0.0000       0.0000       3.2510       7.79556E-07  9.72170E-06
     19     (3,1,4)               4.7678       0.0000      -7.9730       0.0000       0.0000       0.0000       3.2052       7.79556E-07  9.77750E-06
     20     (3,1,5)               4.7678       0.0000      -7.9500       0.0000       0.0000       0.0000       3.1822       7.79556E-07  9.80575E-06
     21     (3,1,6)               4.7678       0.0000      -7.9500       0.0000       0.0000       0.0000       3.1822       7.79556E-07  9.80575E-06
     22     (3,1,7)               4.7678       0.0000      -7.9730       0.0000       0.0000       0.0000       3.2052       7.79556E-07  9.77750E-06
     23     (3,1,8)               4.7678       0.0000      -8.0187       0.0000       0.0000       0.0000       3.2510       7.79556E-07  9.72169E-06
     24     (3,1,9)               4.7678       0.0000      -8.0856       0.0000       0.0000       0.0000       3.3179       7.79556E-07  9.64126E-06
 ----------------------------------------------------------------------------------------------------------------------------------------------------


1
  HEAD IN LAYER   1 AT END OF TIME STEP  45 IN STRESS PERIOD    5
  ---------------------------------------------------------------------------

            1           2           3           4           5           6           7           8           9          10
 ........................................................................................................................
   1   -25.00      -24.93      -24.87      -24.84      -24.82      -24.82      -24.84      -24.87      -24.93      -25.00    
1
  HEAD IN LAYER   2 AT END OF TIME STEP  45 IN STRESS PERIOD    5
  ---------------------------------------------------------------------------

            1           2           3           4           5           6           7           8           9          10
 ........................................................................................................................
   1   -25.00      -24.93      -24.87      -24.84      -24.82      -24.82      -24.84      -24.87      -24.93      -25.00    
1
  HEAD IN LAYER   3 AT END OF TIME STEP  45 IN STRESS PERIOD    5
  ---------------------------------------------------------------------------

            1           2           3           4           5           6           7           8           9          10
 ........................................................................................................................
   1   -25.00      -24.93      -24.87      -24.84      -24.82      -24.82      -24.84      -24.87      -24.93      -25.00    

 HEAD WILL BE SAVED ON UNIT 1022 AT END OF TIME STEP   45, STRESS PERIOD    5


  UZF-1 BUDGET FOR ENTIRE MODEL AT END OF TIME STEP   45, STRESS PERIOD   5
  ------------------------------------------------------------------------------

     CUMULATIVE UZF-1      L**3       RATES FOR THIS TIME STEP      L**3/T
     ------------------                 ------------------------

           IN:                                      IN:
           ---                                      ---
                 GWF =           0.0000                   GWF =           0.0000
        INFILTRATION =      480000.0000          INFILTRATION =           0.0000
             REJ-INF =           0.0000               REJ-INF =           0.0000
                UZET =           0.0000                  UZET =           0.0000
             STORAGE =      500837.3153               STORAGE =          64.2408

            TOTAL IN =      980837.3153              TOTAL IN =          64.2408

          OUT:                                     OUT:
          ----                                     ----
                 GWF =       84933.9248                   GWF =          64.0546
        INFILTRATION =           0.0000          INFILTRATION =           0.0000
             REJ-INF =           0.0000               REJ-INF =           0.0000
                UZET =         964.2014                  UZET =           0.1834
             STORAGE =      894878.6925               STORAGE =           0.0000

           TOTAL OUT =      980776.8187             TOTAL OUT =          64.2380

            IN - OUT =          60.4966              IN - OUT =       2.7820E-03

 PERCENT DISCREPANCY =           0.01     PERCENT DISCREPANCY =           0.00



  VOLUME BUDGET FOR ENTIRE MODEL AT END OF TIME STEP   45, STRESS PERIOD   5
  ---------------------------------------------------------------------------------------------------

     CUMULATIVE VOLUME      L**3       RATES FOR THIS TIME STEP      L**3/T          PACKAGE NAME    
     ------------------                 ------------------------                     ----------------

           IN:                                      IN:
           ---                                      ---
              STO-SS =           0.7529                STO-SS =       2.3152E-03     STORAGE         
              STO-SY =        2920.9050                STO-SY =           8.9907     STORAGE         
                 CHD =           0.0000                   CHD =           0.0000     CHD-1           
           UZF-GWRCH =       84933.9248             UZF-GWRCH =          64.0546     UZF-1           
             UZF-GWD =           0.0000               UZF-GWD =           0.0000     UZF-1           
            UZF-GWET =           0.0000              UZF-GWET =           0.0000     UZF-1           

            TOTAL IN =       87855.5827              TOTAL IN =          73.0476

          OUT:                                     OUT:
          ----                                     ----
              STO-SS =           6.2557                STO-SS =           0.0000     STORAGE         
              STO-SY =       24610.3617                STO-SY =           0.0000     STORAGE         
                 CHD =       63238.9692                   CHD =          73.0479     CHD-1           
           UZF-GWRCH =           0.0000             UZF-GWRCH =           0.0000     UZF-1           
             UZF-GWD =           0.0000               UZF-GWD =           0.0000     UZF-1           
            UZF-GWET =           0.0000              UZF-GWET =           0.0000     UZF-1           

           TOTAL OUT =       87855.5866             TOTAL OUT =          73.0479

            IN - OUT =      -3.8530E-03              IN - OUT =      -2.8644E-04

 PERCENT DISCREPANCY =          -0.00     PERCENT DISCREPANCY =          -0.00




         TIME SUMMARY AT END OF TIME STEP   45 IN STRESS PERIOD    5
                    SECONDS     MINUTES      HOURS       DAYS        YEARS
                    -----------------------------------------------------------
   TIME STEP LENGTH 3.45600E+06  57600.      960.00      40.000     0.10951    
 STRESS PERIOD TIME 1.55520E+08 2.59200E+06  43200.      1800.0      4.9281    
         TOTAL TIME 2.03904E+08 3.39840E+06  56640.      2360.0      6.4613    


end timestep


start timestep kper="5" kstp="46" mode="normal"

 UBDSV1 SAVING     FLOW-JA-FACE ON UNIT   1020 AT TIME STEP     46, STRESS PERIOD      5
 UBDSV06 SAVING     FLOW-JA-FACE IN MODEL GWF_1            PACKAGE UZF-1           CONNECTED TO MODEL GWF_1            PACKAGE UZF-1            ON UNIT   1014 AT TIME STEP     46, STRESS PERIOD      5
 UBDSV06 SAVING              GWF IN MODEL GWF_1            PACKAGE UZF-1           CONNECTED TO MODEL GWF_1            PACKAGE GWF_1            ON UNIT   1014 AT TIME STEP     46, STRESS PERIOD      5
 UBDSV06 SAVING     INFILTRATION IN MODEL GWF_1            PACKAGE UZF-1           CONNECTED TO MODEL GWF_1            PACKAGE UZF-1            ON UNIT   1014 AT TIME STEP     46, STRESS PERIOD      5
 UBDSV06 SAVING          REJ-INF IN MODEL GWF_1            PACKAGE UZF-1           CONNECTED TO MODEL GWF_1            PACKAGE UZF-1            ON UNIT   1014 AT TIME STEP     46, STRESS PERIOD      5
 UBDSV06 SAVING             UZET IN MODEL GWF_1            PACKAGE UZF-1           CONNECTED TO MODEL GWF_1            PACKAGE UZF-1            ON UNIT   1014 AT TIME STEP     46, STRESS PERIOD      5
 UBDSV06 SAVING          STORAGE IN MODEL GWF_1            PACKAGE UZF-1           CONNECTED TO MODEL GWF_1            PACKAGE UZF-1            ON UNIT   1014 AT TIME STEP     46, STRESS PERIOD      5

 CHD PACKAGE (CHD-1) FLOW RATES   PERIOD      5   STEP       46
 -----------------------------------------------
   NUMBER   CELLID                    RATE      
 -----------------------------------------------
     1      (3,1,1)              -35.985454     
     2      (3,1,10)             -35.985454     
 -----------------------------------------------




 UZF-GWRCH PACKAGE (UZF-1) FLOW RATES   PERIOD      5   STEP       46
 ----------------------------------------------------------------------------------------
   NUMBER   CELLID                    RATE       NAME                                    
 ----------------------------------------------------------------------------------------
     1      (1,1,2)               0.0000000      UZF01                                   
     2      (1,1,3)               0.0000000      UZF02                                   
     3      (1,1,4)               0.0000000      UZF03                                   
     4      (1,1,5)               0.0000000      UZF04                                   
     5      (1,1,6)               0.0000000      UZF05                                   
     6      (1,1,7)               0.0000000      UZF06                                   
     7      (1,1,8)               0.0000000      UZF07                                   
     8      (1,1,9)               0.0000000      UZF08                                   
     9      (2,1,2)               0.0000000      UZF08                                   
     10     (2,1,3)               0.0000000      UZF10                                   
     11     (2,1,4)               0.0000000      UZF11                                   
     12     (2,1,5)               0.0000000      UZF12                                   
     13     (2,1,6)               0.0000000      UZF13                                   
     14     (2,1,7)               0.0000000      UZF14                                   
     15     (2,1,8)               0.0000000      UZF15                                   
     16     (2,1,9)               0.0000000      UZF16                                   
     17     (3,1,2)               8.0622444      UZF17                                   
     18     (3,1,3)               7.9642269      UZF18                                   
     19     (3,1,4)               7.8886371      UZF19                                   
     20     (3,1,5)               7.8462749      UZF20                                   
     21     (3,1,6)               7.8462749      UZF21                                   
     22     (3,1,7)               7.8886371      UZF22                                   
     23     (3,1,8)               7.9642269      UZF23                                   
     24     (3,1,9)               8.0622444      UZF24                                   
 ----------------------------------------------------------------------------------------




 UZF-GWD PACKAGE (UZF-1) FLOW RATES   PERIOD      5   STEP       46
 ----------------------------------------------------------------------------------------
   NUMBER   CELLID                    RATE       NAME                                    
 ----------------------------------------------------------------------------------------
     1      (1,1,2)               0.0000000      UZF01                                   
     2      (1,1,3)               0.0000000      UZF02                                   
     3      (1,1,4)               0.0000000      UZF03                                   
     4      (1,1,5)               0.0000000      UZF04                                   
     5      (1,1,6)               0.0000000      UZF05                                   
     6      (1,1,7)               0.0000000      UZF06                                   
     7      (1,1,8)               0.0000000      UZF07                                   
     8      (1,1,9)               0.0000000      UZF08                                   
     9      (2,1,2)               0.0000000      UZF08                                   
     10     (2,1,3)               0.0000000      UZF10                                   
     11     (2,1,4)               0.0000000      UZF11                                   
     12     (2,1,5)               0.0000000      UZF12                                   
     13     (2,1,6)               0.0000000      UZF13                                   
     14     (2,1,7)               0.0000000      UZF14                                   
     15     (2,1,8)               0.0000000      UZF15                                   
     16     (2,1,9)               0.0000000      UZF16                                   
     17     (3,1,2)               0.0000000      UZF17                                   
     18     (3,1,3)               0.0000000      UZF18                                   
     19     (3,1,4)               0.0000000      UZF19                                   
     20     (3,1,5)               0.0000000      UZF20                                   
     21     (3,1,6)               0.0000000      UZF21                                   
     22     (3,1,7)               0.0000000      UZF22                                   
     23     (3,1,8)               0.0000000      UZF23                                   
     24     (3,1,9)               0.0000000      UZF24                                   
 ----------------------------------------------------------------------------------------




 UZF-GWET PACKAGE (UZF-1) FLOW RATES   PERIOD      5   STEP       46
 ----------------------------------------------------------------------------------------
   NUMBER   CELLID                    RATE       NAME                                    
 ----------------------------------------------------------------------------------------
     1      (1,1,2)               0.0000000      UZF01                                   
     2      (1,1,3)               0.0000000      UZF02                                   
     3      (1,1,4)               0.0000000      UZF03                                   
     4      (1,1,5)               0.0000000      UZF04                                   
     5      (1,1,6)               0.0000000      UZF05                                   
     6      (1,1,7)               0.0000000      UZF06                                   
     7      (1,1,8)               0.0000000      UZF07                                   
     8      (1,1,9)               0.0000000      UZF08                                   
     9      (2,1,2)               0.0000000      UZF08                                   
     10     (2,1,3)               0.0000000      UZF10                                   
     11     (2,1,4)               0.0000000      UZF11                                   
     12     (2,1,5)               0.0000000      UZF12                                   
     13     (2,1,6)               0.0000000      UZF13                                   
     14     (2,1,7)               0.0000000      UZF14                                   
     15     (2,1,8)               0.0000000      UZF15                                   
     16     (2,1,9)               0.0000000      UZF16                                   
     17     (3,1,2)               0.0000000      UZF17                                   
     18     (3,1,3)               0.0000000      UZF18                                   
     19     (3,1,4)               0.0000000      UZF19                                   
     20     (3,1,5)               0.0000000      UZF20                                   
     21     (3,1,6)               0.0000000      UZF21                                   
     22     (3,1,7)               0.0000000      UZF22                                   
     23     (3,1,8)               0.0000000      UZF23                                   
     24     (3,1,9)               0.0000000      UZF24                                   
 ----------------------------------------------------------------------------------------




 UZF-1 PACKAGE - SUMMARY OF FLOWS FOR EACH CONTROL VOLUME   PERIOD      5   STEP       46
 ----------------------------------------------------------------------------------------------------------------------------------------------------
                                                                                                                                           PERCENT   
   NUMBER   CELLID                  INFLOW      OUTFLOW        GWF      INFILTRATION   REJ INF        UZET       STORAGE      IN - OUT    DIFFERENCE 
 ----------------------------------------------------------------------------------------------------------------------------------------------------
     1      (1,1,2)               0.0000      -1.1760       0.0000       0.0000       0.0000       0.0000       1.1760      -6.35048E-14 -5.39994E-12
     2      (1,1,3)               0.0000      -1.1760       0.0000       0.0000       0.0000       0.0000       1.1760      -6.35048E-14 -5.39994E-12
     3      (1,1,4)               0.0000      -1.1760       0.0000       0.0000       0.0000       0.0000       1.1760      -6.35048E-14 -5.39994E-12
     4      (1,1,5)               0.0000      -1.1760       0.0000       0.0000       0.0000       0.0000       1.1760      -6.35048E-14 -5.39994E-12
     5      (1,1,6)               0.0000      -1.1760       0.0000       0.0000       0.0000       0.0000       1.1760      -6.35048E-14 -5.39994E-12
     6      (1,1,7)               0.0000      -1.1760       0.0000       0.0000       0.0000       0.0000       1.1760      -6.35048E-14 -5.39994E-12
     7      (1,1,8)               0.0000      -1.1760       0.0000       0.0000       0.0000       0.0000       1.1760      -6.35048E-14 -5.39994E-12
     8      (1,1,9)               0.0000      -1.1760       0.0000       0.0000       0.0000       0.0000       1.1760      -6.35048E-14 -5.39994E-12
     9      (2,1,2)               1.1760      -4.7672       0.0000       0.0000       0.0000      -2.18581E-02  3.6133       3.45639E-04  7.21705E-03
     10     (2,1,3)               1.1760      -4.7672       0.0000       0.0000       0.0000      -2.18581E-02  3.6133       3.45639E-04  7.21705E-03
     11     (2,1,4)               1.1760      -4.7672       0.0000       0.0000       0.0000      -2.18581E-02  3.6133       3.45639E-04  7.21705E-03
     12     (2,1,5)               1.1760      -4.7672       0.0000       0.0000       0.0000      -2.18581E-02  3.6133       3.45639E-04  7.21705E-03
     13     (2,1,6)               1.1760      -4.7672       0.0000       0.0000       0.0000      -2.18581E-02  3.6133       3.45639E-04  7.21705E-03
     14     (2,1,7)               1.1760      -4.7672       0.0000       0.0000       0.0000      -2.18581E-02  3.6133       3.45639E-04  7.21705E-03
     15     (2,1,8)               1.1760      -4.7672       0.0000       0.0000       0.0000      -2.18581E-02  3.6133       3.45639E-04  7.21705E-03
     16     (2,1,9)               1.1760      -4.7672       0.0000       0.0000       0.0000      -2.18581E-02  3.6133       3.45639E-04  7.21705E-03
     17     (3,1,2)               4.7672       0.0000      -8.0622       0.0000       0.0000       0.0000       3.2951       7.64961E-07  9.48819E-06
     18     (3,1,3)               4.7672       0.0000      -7.9642       0.0000       0.0000       0.0000       3.1971       7.64961E-07  9.60497E-06
     19     (3,1,4)               4.7672       0.0000      -7.8886       0.0000       0.0000       0.0000       3.1215       7.64961E-07  9.69700E-06
     20     (3,1,5)               4.7672       0.0000      -7.8463       0.0000       0.0000       0.0000       3.0791       7.64961E-07  9.74935E-06
     21     (3,1,6)               4.7672       0.0000      -7.8463       0.0000       0.0000       0.0000       3.0791       7.64961E-07  9.74935E-06
     22     (3,1,7)               4.7672       0.0000      -7.8886       0.0000       0.0000       0.0000       3.1215       7.64961E-07  9.69700E-06
     23     (3,1,8)               4.7672       0.0000      -7.9642       0.0000       0.0000       0.0000       3.1971       7.64961E-07  9.60497E-06
     24     (3,1,9)               4.7672       0.0000      -8.0622       0.0000       0.0000       0.0000       3.2951       7.64961E-07  9.48819E-06
 ----------------------------------------------------------------------------------------------------------------------------------------------------


1
  HEAD IN LAYER   1 AT END OF TIME STEP  46 IN STRESS PERIOD    5
  ---------------------------------------------------------------------------

            1           2           3           4           5           6           7           8           9          10
 ........................................................................................................................
   1   -25.00      -24.93      -24.88      -24.84      -24.82      -24.82      -24.84      -24.88      -24.93      -25.00    
1
  HEAD IN LAYER   2 AT END OF TIME STEP  46 IN STRESS PERIOD    5
  ---------------------------------------------------------------------------

            1           2           3           4           5           6           7           8           9          10
 ........................................................................................................................
   1   -25.00      -24.93      -24.88      -24.84      -24.82      -24.82      -24.84      -24.88      -24.93      -25.00    
1
  HEAD IN LAYER   3 AT END OF TIME STEP  46 IN STRESS PERIOD    5
  ---------------------------------------------------------------------------

            1           2           3           4           5           6           7           8           9          10
 ........................................................................................................................
   1   -25.00      -24.93      -24.88      -24.84      -24.82      -24.82      -24.84      -24.88      -24.93      -25.00    

 HEAD WILL BE SAVED ON UNIT 1022 AT END OF TIME STEP   46, STRESS PERIOD    5


  UZF-1 BUDGET FOR ENTIRE MODEL AT END OF TIME STEP   46, STRESS PERIOD   5
  ------------------------------------------------------------------------------

     CUMULATIVE UZF-1      L**3       RATES FOR THIS TIME STEP      L**3/T
     ------------------                 ------------------------

           IN:                                      IN:
           ---                                      ---
                 GWF =           0.0000                   GWF =           0.0000
        INFILTRATION =      480000.0000          INFILTRATION =           0.0000
             REJ-INF =           0.0000               REJ-INF =           0.0000
                UZET =           0.0000                  UZET =           0.0000
             STORAGE =      503385.3314               STORAGE =          63.7004

            TOTAL IN =      983385.3314              TOTAL IN =          63.7004

          OUT:                                     OUT:
          ----                                     ----
                 GWF =       87474.8354                   GWF =          63.5228
        INFILTRATION =           0.0000          INFILTRATION =           0.0000
             REJ-INF =           0.0000               REJ-INF =           0.0000
                UZET =         971.1960                  UZET =           0.1749
             STORAGE =      894878.6925               STORAGE =           0.0000

           TOTAL OUT =      983324.7240             TOTAL OUT =          63.6976

            IN - OUT =          60.6075              IN - OUT =       2.7712E-03

 PERCENT DISCREPANCY =           0.01     PERCENT DISCREPANCY =           0.00



  VOLUME BUDGET FOR ENTIRE MODEL AT END OF TIME STEP   46, STRESS PERIOD   5
  ---------------------------------------------------------------------------------------------------

     CUMULATIVE VOLUME      L**3       RATES FOR THIS TIME STEP      L**3/T          PACKAGE NAME    
     ------------------                 ------------------------                     ----------------

           IN:                                      IN:
           ---                                      ---
              STO-SS =           0.8399                STO-SS =       2.1740E-03     STORAGE         
              STO-SY =        3258.7336                STO-SY =           8.4457     STORAGE         
                 CHD =           0.0000                   CHD =           0.0000     CHD-1           
           UZF-GWRCH =       87474.8354             UZF-GWRCH =          63.5228     UZF-1           
             UZF-GWD =           0.0000               UZF-GWD =           0.0000     UZF-1           
            UZF-GWET =           0.0000              UZF-GWET =           0.0000     UZF-1           

            TOTAL IN =       90734.4089              TOTAL IN =          71.9707

          OUT:                                     OUT:
          ----                                     ----
              STO-SS =           6.2557                STO-SS =           0.0000     STORAGE         
              STO-SY =       24610.3617                STO-SY =           0.0000     STORAGE         
                 CHD =       66117.8054                   CHD =          71.9709     CHD-1           
           UZF-GWRCH =           0.0000             UZF-GWRCH =           0.0000     UZF-1           
             UZF-GWD =           0.0000               UZF-GWD =           0.0000     UZF-1           
            UZF-GWET =           0.0000              UZF-GWET =           0.0000     UZF-1           

           TOTAL OUT =       90734.4228             TOTAL OUT =          71.9709

            IN - OUT =      -1.3967E-02              IN - OUT =      -2.5285E-04

 PERCENT DISCREPANCY =          -0.00     PERCENT DISCREPANCY =          -0.00




         TIME SUMMARY AT END OF TIME STEP   46 IN STRESS PERIOD    5
                    SECONDS     MINUTES      HOURS       DAYS        YEARS
                    -----------------------------------------------------------
   TIME STEP LENGTH 3.45600E+06  57600.      960.00      40.000     0.10951    
 STRESS PERIOD TIME 1.58976E+08 2.64960E+06  44160.      1840.0      5.0376    
         TOTAL TIME 2.07360E+08 3.45600E+06  57600.      2400.0      6.5708    


end timestep


start timestep kper="5" kstp="47" mode="normal"

 UBDSV1 SAVING     FLOW-JA-FACE ON UNIT   1020 AT TIME STEP     47, STRESS PERIOD      5
 UBDSV06 SAVING     FLOW-JA-FACE IN MODEL GWF_1            PACKAGE UZF-1           CONNECTED TO MODEL GWF_1            PACKAGE UZF-1            ON UNIT   1014 AT TIME STEP     47, STRESS PERIOD      5
 UBDSV06 SAVING              GWF IN MODEL GWF_1            PACKAGE UZF-1           CONNECTED TO MODEL GWF_1            PACKAGE GWF_1            ON UNIT   1014 AT TIME STEP     47, STRESS PERIOD      5
 UBDSV06 SAVING     INFILTRATION IN MODEL GWF_1            PACKAGE UZF-1           CONNECTED TO MODEL GWF_1            PACKAGE UZF-1            ON UNIT   1014 AT TIME STEP     47, STRESS PERIOD      5
 UBDSV06 SAVING          REJ-INF IN MODEL GWF_1            PACKAGE UZF-1           CONNECTED TO MODEL GWF_1            PACKAGE UZF-1            ON UNIT   1014 AT TIME STEP     47, STRESS PERIOD      5
 UBDSV06 SAVING             UZET IN MODEL GWF_1            PACKAGE UZF-1           CONNECTED TO MODEL GWF_1            PACKAGE UZF-1            ON UNIT   1014 AT TIME STEP     47, STRESS PERIOD      5
 UBDSV06 SAVING          STORAGE IN MODEL GWF_1            PACKAGE UZF-1           CONNECTED TO MODEL GWF_1            PACKAGE UZF-1            ON UNIT   1014 AT TIME STEP     47, STRESS PERIOD      5

 CHD PACKAGE (CHD-1) FLOW RATES   PERIOD      5   STEP       47
 -----------------------------------------------
   NUMBER   CELLID                    RATE      
 -----------------------------------------------
     1      (3,1,1)              -35.180846     
     2      (3,1,10)             -35.180846     
 -----------------------------------------------




 UZF-GWRCH PACKAGE (UZF-1) FLOW RATES   PERIOD      5   STEP       47
 ----------------------------------------------------------------------------------------
   NUMBER   CELLID                    RATE       NAME                                    
 ----------------------------------------------------------------------------------------
     1      (1,1,2)               0.0000000      UZF01                                   
     2      (1,1,3)               0.0000000      UZF02                                   
     3      (1,1,4)               0.0000000      UZF03                                   
     4      (1,1,5)               0.0000000      UZF04                                   
     5      (1,1,6)               0.0000000      UZF05                                   
     6      (1,1,7)               0.0000000      UZF06                                   
     7      (1,1,8)               0.0000000      UZF07                                   
     8      (1,1,9)               0.0000000      UZF08                                   
     9      (2,1,2)               0.0000000      UZF08                                   
     10     (2,1,3)               0.0000000      UZF10                                   
     11     (2,1,4)               0.0000000      UZF11                                   
     12     (2,1,5)               0.0000000      UZF12                                   
     13     (2,1,6)               0.0000000      UZF13                                   
     14     (2,1,7)               0.0000000      UZF14                                   
     15     (2,1,8)               0.0000000      UZF15                                   
     16     (2,1,9)               0.0000000      UZF16                                   
     17     (3,1,2)               7.5411304      UZF17                                   
     18     (3,1,3)               7.4346264      UZF18                                   
     19     (3,1,4)               7.3735295      UZF19                                   
     20     (3,1,5)               7.3473044      UZF20                                   
     21     (3,1,6)               7.3473044      UZF21                                   
     22     (3,1,7)               7.3735295      UZF22                                   
     23     (3,1,8)               7.4346264      UZF23                                   
     24     (3,1,9)               7.5411304      UZF24                                   
 ----------------------------------------------------------------------------------------




 UZF-GWD PACKAGE (UZF-1) FLOW RATES   PERIOD      5   STEP       47
 ----------------------------------------------------------------------------------------
   NUMBER   CELLID                    RATE       NAME                                    
 ----------------------------------------------------------------------------------------
     1      (1,1,2)               0.0000000      UZF01                                   
     2      (1,1,3)               0.0000000      UZF02                                   
     3      (1,1,4)               0.0000000      UZF03                                   
     4      (1,1,5)               0.0000000      UZF04                                   
     5      (1,1,6)               0.0000000      UZF05                                   
     6      (1,1,7)               0.0000000      UZF06                                   
     7      (1,1,8)               0.0000000      UZF07                                   
     8      (1,1,9)               0.0000000      UZF08                                   
     9      (2,1,2)               0.0000000      UZF08                                   
     10     (2,1,3)               0.0000000      UZF10                                   
     11     (2,1,4)               0.0000000      UZF11                                   
     12     (2,1,5)               0.0000000      UZF12                                   
     13     (2,1,6)               0.0000000      UZF13                                   
     14     (2,1,7)               0.0000000      UZF14                                   
     15     (2,1,8)               0.0000000      UZF15                                   
     16     (2,1,9)               0.0000000      UZF16                                   
     17     (3,1,2)               0.0000000      UZF17                                   
     18     (3,1,3)               0.0000000      UZF18                                   
     19     (3,1,4)               0.0000000      UZF19                                   
     20     (3,1,5)               0.0000000      UZF20                                   
     21     (3,1,6)               0.0000000      UZF21                                   
     22     (3,1,7)               0.0000000      UZF22                                   
     23     (3,1,8)               0.0000000      UZF23                                   
     24     (3,1,9)               0.0000000      UZF24                                   
 ----------------------------------------------------------------------------------------




 UZF-GWET PACKAGE (UZF-1) FLOW RATES   PERIOD      5   STEP       47
 ----------------------------------------------------------------------------------------
   NUMBER   CELLID                    RATE       NAME                                    
 ----------------------------------------------------------------------------------------
     1      (1,1,2)               0.0000000      UZF01                                   
     2      (1,1,3)               0.0000000      UZF02                                   
     3      (1,1,4)               0.0000000      UZF03                                   
     4      (1,1,5)               0.0000000      UZF04                                   
     5      (1,1,6)               0.0000000      UZF05                                   
     6      (1,1,7)               0.0000000      UZF06                                   
     7      (1,1,8)               0.0000000      UZF07                                   
     8      (1,1,9)               0.0000000      UZF08                                   
     9      (2,1,2)               0.0000000      UZF08                                   
     10     (2,1,3)               0.0000000      UZF10                                   
     11     (2,1,4)               0.0000000      UZF11                                   
     12     (2,1,5)               0.0000000      UZF12                                   
     13     (2,1,6)               0.0000000      UZF13                                   
     14     (2,1,7)               0.0000000      UZF14                                   
     15     (2,1,8)               0.0000000      UZF15                                   
     16     (2,1,9)               0.0000000      UZF16                                   
     17     (3,1,2)               0.0000000      UZF17                                   
     18     (3,1,3)               0.0000000      UZF18                                   
     19     (3,1,4)               0.0000000      UZF19                                   
     20     (3,1,5)               0.0000000      UZF20                                   
     21     (3,1,6)               0.0000000      UZF21                                   
     22     (3,1,7)               0.0000000      UZF22                                   
     23     (3,1,8)               0.0000000      UZF23                                   
     24     (3,1,9)               0.0000000      UZF24                                   
 ----------------------------------------------------------------------------------------




 UZF-1 PACKAGE - SUMMARY OF FLOWS FOR EACH CONTROL VOLUME   PERIOD      5   STEP       47
 ----------------------------------------------------------------------------------------------------------------------------------------------------
                                                                                                                                           PERCENT   
   NUMBER   CELLID                  INFLOW      OUTFLOW        GWF      INFILTRATION   REJ INF        UZET       STORAGE      IN - OUT    DIFFERENCE 
 ----------------------------------------------------------------------------------------------------------------------------------------------------
     1      (1,1,2)               0.0000      -1.1760       0.0000       0.0000       0.0000       0.0000       1.1760       2.33147E-14  1.98249E-12
     2      (1,1,3)               0.0000      -1.1760       0.0000       0.0000       0.0000       0.0000       1.1760       2.33147E-14  1.98249E-12
     3      (1,1,4)               0.0000      -1.1760       0.0000       0.0000       0.0000       0.0000       1.1760       2.33147E-14  1.98249E-12
     4      (1,1,5)               0.0000      -1.1760       0.0000       0.0000       0.0000       0.0000       1.1760       2.33147E-14  1.98249E-12
     5      (1,1,6)               0.0000      -1.1760       0.0000       0.0000       0.0000       0.0000       1.1760       2.33147E-14  1.98249E-12
     6      (1,1,7)               0.0000      -1.1760       0.0000       0.0000       0.0000       0.0000       1.1760       2.33147E-14  1.98249E-12
     7      (1,1,8)               0.0000      -1.1760       0.0000       0.0000       0.0000       0.0000       1.1760       2.33147E-14  1.98249E-12
     8      (1,1,9)               0.0000      -1.1760       0.0000       0.0000       0.0000       0.0000       1.1760       2.33147E-14  1.98249E-12
     9      (2,1,2)               1.1760      -4.7651       0.0000       0.0000       0.0000      -2.07883E-02  3.6102       3.43882E-04  7.18501E-03
     10     (2,1,3)               1.1760      -4.7651       0.0000       0.0000       0.0000      -2.07883E-02  3.6102       3.43882E-04  7.18501E-03
     11     (2,1,4)               1.1760      -4.7651       0.0000       0.0000       0.0000      -2.07883E-02  3.6102       3.43882E-04  7.18501E-03
     12     (2,1,5)               1.1760      -4.7651       0.0000       0.0000       0.0000      -2.07883E-02  3.6102       3.43882E-04  7.18501E-03
     13     (2,1,6)               1.1760      -4.7651       0.0000       0.0000       0.0000      -2.07883E-02  3.6102       3.43882E-04  7.18501E-03
     14     (2,1,7)               1.1760      -4.7651       0.0000       0.0000       0.0000      -2.07883E-02  3.6102       3.43882E-04  7.18501E-03
     15     (2,1,8)               1.1760      -4.7651       0.0000       0.0000       0.0000      -2.07883E-02  3.6102       3.43882E-04  7.18501E-03
     16     (2,1,9)               1.1760      -4.7651       0.0000       0.0000       0.0000      -2.07883E-02  3.6102       3.43882E-04  7.18501E-03
     17     (3,1,2)               4.7651       0.0000      -7.5411       0.0000       0.0000       0.0000       2.7760       7.64740E-07  1.01409E-05
     18     (3,1,3)               4.7651       0.0000      -7.4346       0.0000       0.0000       0.0000       2.6695       7.64740E-07  1.02862E-05
     19     (3,1,4)               4.7651       0.0000      -7.3735       0.0000       0.0000       0.0000       2.6084       7.64740E-07  1.03714E-05
     20     (3,1,5)               4.7651       0.0000      -7.3473       0.0000       0.0000       0.0000       2.5822       7.64740E-07  1.04084E-05
     21     (3,1,6)               4.7651       0.0000      -7.3473       0.0000       0.0000       0.0000       2.5822       7.64740E-07  1.04084E-05
     22     (3,1,7)               4.7651       0.0000      -7.3735       0.0000       0.0000       0.0000       2.6084       7.64740E-07  1.03714E-05
     23     (3,1,8)               4.7651       0.0000      -7.4346       0.0000       0.0000       0.0000       2.6695       7.64740E-07  1.02862E-05
     24     (3,1,9)               4.7651       0.0000      -7.5411       0.0000       0.0000       0.0000       2.7760       7.64740E-07  1.01409E-05
 ----------------------------------------------------------------------------------------------------------------------------------------------------


1
  HEAD IN LAYER   1 AT END OF TIME STEP  47 IN STRESS PERIOD    5
  ---------------------------------------------------------------------------

            1           2           3           4           5           6           7           8           9          10
 ........................................................................................................................
   1   -25.00      -24.93      -24.88      -24.84      -24.83      -24.83      -24.84      -24.88      -24.93      -25.00    
1
  HEAD IN LAYER   2 AT END OF TIME STEP  47 IN STRESS PERIOD    5
  ---------------------------------------------------------------------------

            1           2           3           4           5           6           7           8           9          10
 ........................................................................................................................
   1   -25.00      -24.93      -24.88      -24.84      -24.83      -24.83      -24.84      -24.88      -24.93      -25.00    
1
  HEAD IN LAYER   3 AT END OF TIME STEP  47 IN STRESS PERIOD    5
  ---------------------------------------------------------------------------

            1           2           3           4           5           6           7           8           9          10
 ........................................................................................................................
   1   -25.00      -24.93      -24.88      -24.84      -24.83      -24.83      -24.84      -24.88      -24.93      -25.00    

 HEAD WILL BE SAVED ON UNIT 1022 AT END OF TIME STEP   47, STRESS PERIOD    5


  UZF-1 BUDGET FOR ENTIRE MODEL AT END OF TIME STEP   47, STRESS PERIOD   5
  ------------------------------------------------------------------------------

     CUMULATIVE UZF-1      L**3       RATES FOR THIS TIME STEP      L**3/T
     ------------------                 ------------------------

           IN:                                      IN:
           ---                                      ---
                 GWF =           0.0000                   GWF =           0.0000
        INFILTRATION =      480000.0000          INFILTRATION =           0.0000
             REJ-INF =           0.0000               REJ-INF =           0.0000
                UZET =           0.0000                  UZET =           0.0000
             STORAGE =      505767.8213               STORAGE =          59.5622

            TOTAL IN =      985767.8213              TOTAL IN =          59.5622

          OUT:                                     OUT:
          ----                                     ----
                 GWF =       89850.5627                   GWF =          59.3932
        INFILTRATION =           0.0000          INFILTRATION =           0.0000
             REJ-INF =           0.0000               REJ-INF =           0.0000
                UZET =         977.8483                  UZET =           0.1663
             STORAGE =      894878.6925               STORAGE =           0.0000

           TOTAL OUT =      985707.1035             TOTAL OUT =          59.5595

            IN - OUT =          60.7177              IN - OUT =       2.7572E-03

 PERCENT DISCREPANCY =           0.01     PERCENT DISCREPANCY =           0.00



  VOLUME BUDGET FOR ENTIRE MODEL AT END OF TIME STEP   47, STRESS PERIOD   5
  ---------------------------------------------------------------------------------------------------

     CUMULATIVE VOLUME      L**3       RATES FOR THIS TIME STEP      L**3/T          PACKAGE NAME    
     ------------------                 ------------------------                     ----------------

           IN:                                      IN:
           ---                                      ---
              STO-SS =           0.9527                STO-SS =       2.8199E-03     STORAGE         
              STO-SY =        3697.3486                STO-SY =          10.9654     STORAGE         
                 CHD =           0.0000                   CHD =           0.0000     CHD-1           
           UZF-GWRCH =       89850.5627             UZF-GWRCH =          59.3932     UZF-1           
             UZF-GWD =           0.0000               UZF-GWD =           0.0000     UZF-1           
            UZF-GWET =           0.0000              UZF-GWET =           0.0000     UZF-1           

            TOTAL IN =       93548.8640              TOTAL IN =          70.3614

          OUT:                                     OUT:
          ----                                     ----
              STO-SS =           6.2557                STO-SS =           0.0000     STORAGE         
              STO-SY =       24610.3617                STO-SY =           0.0000     STORAGE         
                 CHD =       68932.2732                   CHD =          70.3617     CHD-1           
           UZF-GWRCH =           0.0000             UZF-GWRCH =           0.0000     UZF-1           
             UZF-GWD =           0.0000               UZF-GWD =           0.0000     UZF-1           
            UZF-GWET =           0.0000              UZF-GWET =           0.0000     UZF-1           

           TOTAL OUT =       93548.8906             TOTAL OUT =          70.3617

            IN - OUT =      -2.6603E-02              IN - OUT =      -3.1589E-04

 PERCENT DISCREPANCY =          -0.00     PERCENT DISCREPANCY =          -0.00




         TIME SUMMARY AT END OF TIME STEP   47 IN STRESS PERIOD    5
                    SECONDS     MINUTES      HOURS       DAYS        YEARS
                    -----------------------------------------------------------
   TIME STEP LENGTH 3.45600E+06  57600.      960.00      40.000     0.10951    
 STRESS PERIOD TIME 1.62432E+08 2.70720E+06  45120.      1880.0      5.1472    
         TOTAL TIME 2.10816E+08 3.51360E+06  58560.      2440.0      6.6804    


end timestep


start timestep kper="5" kstp="48" mode="normal"

 UBDSV1 SAVING     FLOW-JA-FACE ON UNIT   1020 AT TIME STEP     48, STRESS PERIOD      5
 UBDSV06 SAVING     FLOW-JA-FACE IN MODEL GWF_1            PACKAGE UZF-1           CONNECTED TO MODEL GWF_1            PACKAGE UZF-1            ON UNIT   1014 AT TIME STEP     48, STRESS PERIOD      5
 UBDSV06 SAVING              GWF IN MODEL GWF_1            PACKAGE UZF-1           CONNECTED TO MODEL GWF_1            PACKAGE GWF_1            ON UNIT   1014 AT TIME STEP     48, STRESS PERIOD      5
 UBDSV06 SAVING     INFILTRATION IN MODEL GWF_1            PACKAGE UZF-1           CONNECTED TO MODEL GWF_1            PACKAGE UZF-1            ON UNIT   1014 AT TIME STEP     48, STRESS PERIOD      5
 UBDSV06 SAVING          REJ-INF IN MODEL GWF_1            PACKAGE UZF-1           CONNECTED TO MODEL GWF_1            PACKAGE UZF-1            ON UNIT   1014 AT TIME STEP     48, STRESS PERIOD      5
 UBDSV06 SAVING             UZET IN MODEL GWF_1            PACKAGE UZF-1           CONNECTED TO MODEL GWF_1            PACKAGE UZF-1            ON UNIT   1014 AT TIME STEP     48, STRESS PERIOD      5
 UBDSV06 SAVING          STORAGE IN MODEL GWF_1            PACKAGE UZF-1           CONNECTED TO MODEL GWF_1            PACKAGE UZF-1            ON UNIT   1014 AT TIME STEP     48, STRESS PERIOD      5

 CHD PACKAGE (CHD-1) FLOW RATES   PERIOD      5   STEP       48
 -----------------------------------------------
   NUMBER   CELLID                    RATE      
 -----------------------------------------------
     1      (3,1,1)              -34.364653     
     2      (3,1,10)             -34.364653     
 -----------------------------------------------




 UZF-GWRCH PACKAGE (UZF-1) FLOW RATES   PERIOD      5   STEP       48
 ----------------------------------------------------------------------------------------
   NUMBER   CELLID                    RATE       NAME                                    
 ----------------------------------------------------------------------------------------
     1      (1,1,2)               0.0000000      UZF01                                   
     2      (1,1,3)               0.0000000      UZF02                                   
     3      (1,1,4)               0.0000000      UZF03                                   
     4      (1,1,5)               0.0000000      UZF04                                   
     5      (1,1,6)               0.0000000      UZF05                                   
     6      (1,1,7)               0.0000000      UZF06                                   
     7      (1,1,8)               0.0000000      UZF07                                   
     8      (1,1,9)               0.0000000      UZF08                                   
     9      (2,1,2)               0.0000000      UZF08                                   
     10     (2,1,3)               0.0000000      UZF10                                   
     11     (2,1,4)               0.0000000      UZF11                                   
     12     (2,1,5)               0.0000000      UZF12                                   
     13     (2,1,6)               0.0000000      UZF13                                   
     14     (2,1,7)               0.0000000      UZF14                                   
     15     (2,1,8)               0.0000000      UZF15                                   
     16     (2,1,9)               0.0000000      UZF16                                   
     17     (3,1,2)               7.3141337      UZF17                                   
     18     (3,1,3)               7.1609581      UZF18                                   
     19     (3,1,4)               7.0593330      UZF19                                   
     20     (3,1,5)               7.0020391      UZF20                                   
     21     (3,1,6)               7.0020391      UZF21                                   
     22     (3,1,7)               7.0593330      UZF22                                   
     23     (3,1,8)               7.1609581      UZF23                                   
     24     (3,1,9)               7.3141337      UZF24                                   
 ----------------------------------------------------------------------------------------




 UZF-GWD PACKAGE (UZF-1) FLOW RATES   PERIOD      5   STEP       48
 ----------------------------------------------------------------------------------------
   NUMBER   CELLID                    RATE       NAME                                    
 ----------------------------------------------------------------------------------------
     1      (1,1,2)               0.0000000      UZF01                                   
     2      (1,1,3)               0.0000000      UZF02                                   
     3      (1,1,4)               0.0000000      UZF03                                   
     4      (1,1,5)               0.0000000      UZF04                                   
     5      (1,1,6)               0.0000000      UZF05                                   
     6      (1,1,7)               0.0000000      UZF06                                   
     7      (1,1,8)               0.0000000      UZF07                                   
     8      (1,1,9)               0.0000000      UZF08                                   
     9      (2,1,2)               0.0000000      UZF08                                   
     10     (2,1,3)               0.0000000      UZF10                                   
     11     (2,1,4)               0.0000000      UZF11                                   
     12     (2,1,5)               0.0000000      UZF12                                   
     13     (2,1,6)               0.0000000      UZF13                                   
     14     (2,1,7)               0.0000000      UZF14                                   
     15     (2,1,8)               0.0000000      UZF15                                   
     16     (2,1,9)               0.0000000      UZF16                                   
     17     (3,1,2)               0.0000000      UZF17                                   
     18     (3,1,3)               0.0000000      UZF18                                   
     19     (3,1,4)               0.0000000      UZF19                                   
     20     (3,1,5)               0.0000000      UZF20                                   
     21     (3,1,6)               0.0000000      UZF21                                   
     22     (3,1,7)               0.0000000      UZF22                                   
     23     (3,1,8)               0.0000000      UZF23                                   
     24     (3,1,9)               0.0000000      UZF24                                   
 ----------------------------------------------------------------------------------------




 UZF-GWET PACKAGE (UZF-1) FLOW RATES   PERIOD      5   STEP       48
 ----------------------------------------------------------------------------------------
   NUMBER   CELLID                    RATE       NAME                                    
 ----------------------------------------------------------------------------------------
     1      (1,1,2)               0.0000000      UZF01                                   
     2      (1,1,3)               0.0000000      UZF02                                   
     3      (1,1,4)               0.0000000      UZF03                                   
     4      (1,1,5)               0.0000000      UZF04                                   
     5      (1,1,6)               0.0000000      UZF05                                   
     6      (1,1,7)               0.0000000      UZF06                                   
     7      (1,1,8)               0.0000000      UZF07                                   
     8      (1,1,9)               0.0000000      UZF08                                   
     9      (2,1,2)               0.0000000      UZF08                                   
     10     (2,1,3)               0.0000000      UZF10                                   
     11     (2,1,4)               0.0000000      UZF11                                   
     12     (2,1,5)               0.0000000      UZF12                                   
     13     (2,1,6)               0.0000000      UZF13                                   
     14     (2,1,7)               0.0000000      UZF14                                   
     15     (2,1,8)               0.0000000      UZF15                                   
     16     (2,1,9)               0.0000000      UZF16                                   
     17     (3,1,2)               0.0000000      UZF17                                   
     18     (3,1,3)               0.0000000      UZF18                                   
     19     (3,1,4)               0.0000000      UZF19                                   
     20     (3,1,5)               0.0000000      UZF20                                   
     21     (3,1,6)               0.0000000      UZF21                                   
     22     (3,1,7)               0.0000000      UZF22                                   
     23     (3,1,8)               0.0000000      UZF23                                   
     24     (3,1,9)               0.0000000      UZF24                                   
 ----------------------------------------------------------------------------------------




 UZF-1 PACKAGE - SUMMARY OF FLOWS FOR EACH CONTROL VOLUME   PERIOD      5   STEP       48
 ----------------------------------------------------------------------------------------------------------------------------------------------------
                                                                                                                                           PERCENT   
   NUMBER   CELLID                  INFLOW      OUTFLOW        GWF      INFILTRATION   REJ INF        UZET       STORAGE      IN - OUT    DIFFERENCE 
 ----------------------------------------------------------------------------------------------------------------------------------------------------
     1      (1,1,2)               0.0000      -1.1760       0.0000       0.0000       0.0000       0.0000       1.1760       2.33147E-14  1.98249E-12
     2      (1,1,3)               0.0000      -1.1760       0.0000       0.0000       0.0000       0.0000       1.1760       2.33147E-14  1.98249E-12
     3      (1,1,4)               0.0000      -1.1760       0.0000       0.0000       0.0000       0.0000       1.1760       2.33147E-14  1.98249E-12
     4      (1,1,5)               0.0000      -1.1760       0.0000       0.0000       0.0000       0.0000       1.1760       2.33147E-14  1.98249E-12
     5      (1,1,6)               0.0000      -1.1760       0.0000       0.0000       0.0000       0.0000       1.1760       2.33147E-14  1.98249E-12
     6      (1,1,7)               0.0000      -1.1760       0.0000       0.0000       0.0000       0.0000       1.1760       2.33147E-14  1.98249E-12
     7      (1,1,8)               0.0000      -1.1760       0.0000       0.0000       0.0000       0.0000       1.1760       2.33147E-14  1.98249E-12
     8      (1,1,9)               0.0000      -1.1760       0.0000       0.0000       0.0000       0.0000       1.1760       2.33147E-14  1.98249E-12
     9      (2,1,2)               1.1760      -4.7631       0.0000       0.0000       0.0000      -1.97185E-02  3.6071       3.41699E-04  7.14404E-03
     10     (2,1,3)               1.1760      -4.7631       0.0000       0.0000       0.0000      -1.97185E-02  3.6071       3.41699E-04  7.14404E-03
     11     (2,1,4)               1.1760      -4.7631       0.0000       0.0000       0.0000      -1.97185E-02  3.6071       3.41699E-04  7.14404E-03
     12     (2,1,5)               1.1760      -4.7631       0.0000       0.0000       0.0000      -1.97185E-02  3.6071       3.41699E-04  7.14404E-03
     13     (2,1,6)               1.1760      -4.7631       0.0000       0.0000       0.0000      -1.97185E-02  3.6071       3.41699E-04  7.14404E-03
     14     (2,1,7)               1.1760      -4.7631       0.0000       0.0000       0.0000      -1.97185E-02  3.6071       3.41699E-04  7.14404E-03
     15     (2,1,8)               1.1760      -4.7631       0.0000       0.0000       0.0000      -1.97185E-02  3.6071       3.41699E-04  7.14404E-03
     16     (2,1,9)               1.1760      -4.7631       0.0000       0.0000       0.0000      -1.97185E-02  3.6071       3.41699E-04  7.14404E-03
     17     (3,1,2)               4.7631       0.0000      -7.3141       0.0000       0.0000       0.0000       2.5510       7.64496E-07  1.04523E-05
     18     (3,1,3)               4.7631       0.0000      -7.1610       0.0000       0.0000       0.0000       2.3979       7.64495E-07  1.06759E-05
     19     (3,1,4)               4.7631       0.0000      -7.0593       0.0000       0.0000       0.0000       2.2962       7.64495E-07  1.08296E-05
     20     (3,1,5)               4.7631       0.0000      -7.0020       0.0000       0.0000       0.0000       2.2389       7.64496E-07  1.09182E-05
     21     (3,1,6)               4.7631       0.0000      -7.0020       0.0000       0.0000       0.0000       2.2389       7.64496E-07  1.09182E-05
     22     (3,1,7)               4.7631       0.0000      -7.0593       0.0000       0.0000       0.0000       2.2962       7.64496E-07  1.08296E-05
     23     (3,1,8)               4.7631       0.0000      -7.1610       0.0000       0.0000       0.0000       2.3979       7.64496E-07  1.06759E-05
     24     (3,1,9)               4.7631       0.0000      -7.3141       0.0000       0.0000       0.0000       2.5510       7.64496E-07  1.04523E-05
 ----------------------------------------------------------------------------------------------------------------------------------------------------


1
  HEAD IN LAYER   1 AT END OF TIME STEP  48 IN STRESS PERIOD    5
  ---------------------------------------------------------------------------

            1           2           3           4           5           6           7           8           9          10
 ........................................................................................................................
   1   -25.00      -24.93      -24.88      -24.85      -24.83      -24.83      -24.85      -24.88      -24.93      -25.00    
1
  HEAD IN LAYER   2 AT END OF TIME STEP  48 IN STRESS PERIOD    5
  ---------------------------------------------------------------------------

            1           2           3           4           5           6           7           8           9          10
 ........................................................................................................................
   1   -25.00      -24.93      -24.88      -24.85      -24.83      -24.83      -24.85      -24.88      -24.93      -25.00    
1
  HEAD IN LAYER   3 AT END OF TIME STEP  48 IN STRESS PERIOD    5
  ---------------------------------------------------------------------------

            1           2           3           4           5           6           7           8           9          10
 ........................................................................................................................
   1   -25.00      -24.93      -24.88      -24.85      -24.83      -24.83      -24.85      -24.88      -24.93      -25.00    

 HEAD WILL BE SAVED ON UNIT 1022 AT END OF TIME STEP   48, STRESS PERIOD    5


  UZF-1 BUDGET FOR ENTIRE MODEL AT END OF TIME STEP   48, STRESS PERIOD   5
  ------------------------------------------------------------------------------

     CUMULATIVE UZF-1      L**3       RATES FOR THIS TIME STEP      L**3/T
     ------------------                 ------------------------

           IN:                                      IN:
           ---                                      ---
                 GWF =           0.0000                   GWF =           0.0000
        INFILTRATION =      480000.0000          INFILTRATION =           0.0000
             REJ-INF =           0.0000               REJ-INF =           0.0000
                UZET =           0.0000                  UZET =           0.0000
             STORAGE =      508057.1579               STORAGE =          57.2334

            TOTAL IN =      988057.1579              TOTAL IN =          57.2334

          OUT:                                     OUT:
          ----                                     ----
                 GWF =       92133.4798                   GWF =          57.0729
        INFILTRATION =           0.0000          INFILTRATION =           0.0000
             REJ-INF =           0.0000               REJ-INF =           0.0000
                UZET =         984.1582                  UZET =           0.1577
             STORAGE =      894878.6925               STORAGE =           0.0000

           TOTAL OUT =      987996.3305             TOTAL OUT =          57.2307

            IN - OUT =          60.8273              IN - OUT =       2.7397E-03

 PERCENT DISCREPANCY =           0.01     PERCENT DISCREPANCY =           0.00



  VOLUME BUDGET FOR ENTIRE MODEL AT END OF TIME STEP   48, STRESS PERIOD   5
  ---------------------------------------------------------------------------------------------------

     CUMULATIVE VOLUME      L**3       RATES FOR THIS TIME STEP      L**3/T          PACKAGE NAME    
     ------------------                 ------------------------                     ----------------

           IN:                                      IN:
           ---                                      ---
              STO-SS =           1.0725                STO-SS =       2.9954E-03     STORAGE         
              STO-SY =        4163.4718                STO-SY =          11.6531     STORAGE         
                 CHD =           0.0000                   CHD =           0.0000     CHD-1           
           UZF-GWRCH =       92133.4798             UZF-GWRCH =          57.0729     UZF-1           
             UZF-GWD =           0.0000               UZF-GWD =           0.0000     UZF-1           
            UZF-GWET =           0.0000              UZF-GWET =           0.0000     UZF-1           

            TOTAL IN =       96298.0241              TOTAL IN =          68.7290

          OUT:                                     OUT:
          ----                                     ----
              STO-SS =           6.2557                STO-SS =           0.0000     STORAGE         
              STO-SY =       24610.3617                STO-SY =           0.0000     STORAGE         
                 CHD =       71681.4454                   CHD =          68.7293     CHD-1           
           UZF-GWRCH =           0.0000             UZF-GWRCH =           0.0000     UZF-1           
             UZF-GWD =           0.0000               UZF-GWD =           0.0000     UZF-1           
            UZF-GWET =           0.0000              UZF-GWET =           0.0000     UZF-1           

           TOTAL OUT =       96298.0628             TOTAL OUT =          68.7293

            IN - OUT =      -3.8688E-02              IN - OUT =      -3.0212E-04

 PERCENT DISCREPANCY =          -0.00     PERCENT DISCREPANCY =          -0.00




         TIME SUMMARY AT END OF TIME STEP   48 IN STRESS PERIOD    5
                    SECONDS     MINUTES      HOURS       DAYS        YEARS
                    -----------------------------------------------------------
   TIME STEP LENGTH 3.45600E+06  57600.      960.00      40.000     0.10951    
 STRESS PERIOD TIME 1.65888E+08 2.76480E+06  46080.      1920.0      5.2567    
         TOTAL TIME 2.14272E+08 3.57120E+06  59520.      2480.0      6.7899    


end timestep


start timestep kper="5" kstp="49" mode="normal"

 UBDSV1 SAVING     FLOW-JA-FACE ON UNIT   1020 AT TIME STEP     49, STRESS PERIOD      5
 UBDSV06 SAVING     FLOW-JA-FACE IN MODEL GWF_1            PACKAGE UZF-1           CONNECTED TO MODEL GWF_1            PACKAGE UZF-1            ON UNIT   1014 AT TIME STEP     49, STRESS PERIOD      5
 UBDSV06 SAVING              GWF IN MODEL GWF_1            PACKAGE UZF-1           CONNECTED TO MODEL GWF_1            PACKAGE GWF_1            ON UNIT   1014 AT TIME STEP     49, STRESS PERIOD      5
 UBDSV06 SAVING     INFILTRATION IN MODEL GWF_1            PACKAGE UZF-1           CONNECTED TO MODEL GWF_1            PACKAGE UZF-1            ON UNIT   1014 AT TIME STEP     49, STRESS PERIOD      5
 UBDSV06 SAVING          REJ-INF IN MODEL GWF_1            PACKAGE UZF-1           CONNECTED TO MODEL GWF_1            PACKAGE UZF-1            ON UNIT   1014 AT TIME STEP     49, STRESS PERIOD      5
 UBDSV06 SAVING             UZET IN MODEL GWF_1            PACKAGE UZF-1           CONNECTED TO MODEL GWF_1            PACKAGE UZF-1            ON UNIT   1014 AT TIME STEP     49, STRESS PERIOD      5
 UBDSV06 SAVING          STORAGE IN MODEL GWF_1            PACKAGE UZF-1           CONNECTED TO MODEL GWF_1            PACKAGE UZF-1            ON UNIT   1014 AT TIME STEP     49, STRESS PERIOD      5

 CHD PACKAGE (CHD-1) FLOW RATES   PERIOD      5   STEP       49
 -----------------------------------------------
   NUMBER   CELLID                    RATE      
 -----------------------------------------------
     1      (3,1,1)              -33.190275     
     2      (3,1,10)             -33.190275     
 -----------------------------------------------




 UZF-GWRCH PACKAGE (UZF-1) FLOW RATES   PERIOD      5   STEP       49
 ----------------------------------------------------------------------------------------
   NUMBER   CELLID                    RATE       NAME                                    
 ----------------------------------------------------------------------------------------
     1      (1,1,2)               0.0000000      UZF01                                   
     2      (1,1,3)               0.0000000      UZF02                                   
     3      (1,1,4)               0.0000000      UZF03                                   
     4      (1,1,5)               0.0000000      UZF04                                   
     5      (1,1,6)               0.0000000      UZF05                                   
     6      (1,1,7)               0.0000000      UZF06                                   
     7      (1,1,8)               0.0000000      UZF07                                   
     8      (1,1,9)               0.0000000      UZF08                                   
     9      (2,1,2)               0.0000000      UZF08                                   
     10     (2,1,3)               0.0000000      UZF10                                   
     11     (2,1,4)               0.0000000      UZF11                                   
     12     (2,1,5)               0.0000000      UZF12                                   
     13     (2,1,6)               0.0000000      UZF13                                   
     14     (2,1,7)               0.0000000      UZF14                                   
     15     (2,1,8)               0.0000000      UZF15                                   
     16     (2,1,9)               0.0000000      UZF16                                   
     17     (3,1,2)               6.5432505      UZF17                                   
     18     (3,1,3)               6.3722161      UZF18                                   
     19     (3,1,4)               6.2649909      UZF19                                   
     20     (3,1,5)               6.2196393      UZF20                                   
     21     (3,1,6)               6.2196393      UZF21                                   
     22     (3,1,7)               6.2649909      UZF22                                   
     23     (3,1,8)               6.3722161      UZF23                                   
     24     (3,1,9)               6.5432505      UZF24                                   
 ----------------------------------------------------------------------------------------




 UZF-GWD PACKAGE (UZF-1) FLOW RATES   PERIOD      5   STEP       49
 ----------------------------------------------------------------------------------------
   NUMBER   CELLID                    RATE       NAME                                    
 ----------------------------------------------------------------------------------------
     1      (1,1,2)               0.0000000      UZF01                                   
     2      (1,1,3)               0.0000000      UZF02                                   
     3      (1,1,4)               0.0000000      UZF03                                   
     4      (1,1,5)               0.0000000      UZF04                                   
     5      (1,1,6)               0.0000000      UZF05                                   
     6      (1,1,7)               0.0000000      UZF06                                   
     7      (1,1,8)               0.0000000      UZF07                                   
     8      (1,1,9)               0.0000000      UZF08                                   
     9      (2,1,2)               0.0000000      UZF08                                   
     10     (2,1,3)               0.0000000      UZF10                                   
     11     (2,1,4)               0.0000000      UZF11                                   
     12     (2,1,5)               0.0000000      UZF12                                   
     13     (2,1,6)               0.0000000      UZF13                                   
     14     (2,1,7)               0.0000000      UZF14                                   
     15     (2,1,8)               0.0000000      UZF15                                   
     16     (2,1,9)               0.0000000      UZF16                                   
     17     (3,1,2)               0.0000000      UZF17                                   
     18     (3,1,3)               0.0000000      UZF18                                   
     19     (3,1,4)               0.0000000      UZF19                                   
     20     (3,1,5)               0.0000000      UZF20                                   
     21     (3,1,6)               0.0000000      UZF21                                   
     22     (3,1,7)               0.0000000      UZF22                                   
     23     (3,1,8)               0.0000000      UZF23                                   
     24     (3,1,9)               0.0000000      UZF24                                   
 ----------------------------------------------------------------------------------------




 UZF-GWET PACKAGE (UZF-1) FLOW RATES   PERIOD      5   STEP       49
 ----------------------------------------------------------------------------------------
   NUMBER   CELLID                    RATE       NAME                                    
 ----------------------------------------------------------------------------------------
     1      (1,1,2)               0.0000000      UZF01                                   
     2      (1,1,3)               0.0000000      UZF02                                   
     3      (1,1,4)               0.0000000      UZF03                                   
     4      (1,1,5)               0.0000000      UZF04                                   
     5      (1,1,6)               0.0000000      UZF05                                   
     6      (1,1,7)               0.0000000      UZF06                                   
     7      (1,1,8)               0.0000000      UZF07                                   
     8      (1,1,9)               0.0000000      UZF08                                   
     9      (2,1,2)               0.0000000      UZF08                                   
     10     (2,1,3)               0.0000000      UZF10                                   
     11     (2,1,4)               0.0000000      UZF11                                   
     12     (2,1,5)               0.0000000      UZF12                                   
     13     (2,1,6)               0.0000000      UZF13                                   
     14     (2,1,7)               0.0000000      UZF14                                   
     15     (2,1,8)               0.0000000      UZF15                                   
     16     (2,1,9)               0.0000000      UZF16                                   
     17     (3,1,2)               0.0000000      UZF17                                   
     18     (3,1,3)               0.0000000      UZF18                                   
     19     (3,1,4)               0.0000000      UZF19                                   
     20     (3,1,5)               0.0000000      UZF20                                   
     21     (3,1,6)               0.0000000      UZF21                                   
     22     (3,1,7)               0.0000000      UZF22                                   
     23     (3,1,8)               0.0000000      UZF23                                   
     24     (3,1,9)               0.0000000      UZF24                                   
 ----------------------------------------------------------------------------------------




 UZF-1 PACKAGE - SUMMARY OF FLOWS FOR EACH CONTROL VOLUME   PERIOD      5   STEP       49
 ----------------------------------------------------------------------------------------------------------------------------------------------------
                                                                                                                                           PERCENT   
   NUMBER   CELLID                  INFLOW      OUTFLOW        GWF      INFILTRATION   REJ INF        UZET       STORAGE      IN - OUT    DIFFERENCE 
 ----------------------------------------------------------------------------------------------------------------------------------------------------
     1      (1,1,2)               0.0000      -1.1760       0.0000       0.0000       0.0000       0.0000       1.1760      -4.61853E-14 -3.92723E-12
     2      (1,1,3)               0.0000      -1.1760       0.0000       0.0000       0.0000       0.0000       1.1760      -4.61853E-14 -3.92723E-12
     3      (1,1,4)               0.0000      -1.1760       0.0000       0.0000       0.0000       0.0000       1.1760      -4.61853E-14 -3.92723E-12
     4      (1,1,5)               0.0000      -1.1760       0.0000       0.0000       0.0000       0.0000       1.1760      -4.61853E-14 -3.92723E-12
     5      (1,1,6)               0.0000      -1.1760       0.0000       0.0000       0.0000       0.0000       1.1760      -4.61853E-14 -3.92723E-12
     6      (1,1,7)               0.0000      -1.1760       0.0000       0.0000       0.0000       0.0000       1.1760      -4.61853E-14 -3.92723E-12
     7      (1,1,8)               0.0000      -1.1760       0.0000       0.0000       0.0000       0.0000       1.1760      -4.61853E-14 -3.92723E-12
     8      (1,1,9)               0.0000      -1.1760       0.0000       0.0000       0.0000       0.0000       1.1760      -4.61853E-14 -3.92723E-12
     9      (2,1,2)               1.1760      -4.7611       0.0000       0.0000       0.0000      -1.86487E-02  3.6040       3.39092E-04  7.09413E-03
     10     (2,1,3)               1.1760      -4.7611       0.0000       0.0000       0.0000      -1.86487E-02  3.6040       3.39092E-04  7.09413E-03
     11     (2,1,4)               1.1760      -4.7611       0.0000       0.0000       0.0000      -1.86487E-02  3.6040       3.39092E-04  7.09413E-03
     12     (2,1,5)               1.1760      -4.7611       0.0000       0.0000       0.0000      -1.86487E-02  3.6040       3.39092E-04  7.09413E-03
     13     (2,1,6)               1.1760      -4.7611       0.0000       0.0000       0.0000      -1.86487E-02  3.6040       3.39092E-04  7.09413E-03
     14     (2,1,7)               1.1760      -4.7611       0.0000       0.0000       0.0000      -1.86487E-02  3.6040       3.39092E-04  7.09413E-03
     15     (2,1,8)               1.1760      -4.7611       0.0000       0.0000       0.0000      -1.86487E-02  3.6040       3.39092E-04  7.09413E-03
     16     (2,1,9)               1.1760      -4.7611       0.0000       0.0000       0.0000      -1.86487E-02  3.6040       3.39092E-04  7.09413E-03
     17     (3,1,2)               4.7611       0.0000      -6.5433       0.0000       0.0000       0.0000       1.7822       7.64251E-07  1.16800E-05
     18     (3,1,3)               4.7611       0.0000      -6.3722       0.0000       0.0000       0.0000       1.6111       7.64251E-07  1.19935E-05
     19     (3,1,4)               4.7611       0.0000      -6.2650       0.0000       0.0000       0.0000       1.5039       7.64251E-07  1.21988E-05
     20     (3,1,5)               4.7611       0.0000      -6.2196       0.0000       0.0000       0.0000       1.4586       7.64251E-07  1.22877E-05
     21     (3,1,6)               4.7611       0.0000      -6.2196       0.0000       0.0000       0.0000       1.4586       7.64252E-07  1.22877E-05
     22     (3,1,7)               4.7611       0.0000      -6.2650       0.0000       0.0000       0.0000       1.5039       7.64252E-07  1.21988E-05
     23     (3,1,8)               4.7611       0.0000      -6.3722       0.0000       0.0000       0.0000       1.6111       7.64252E-07  1.19935E-05
     24     (3,1,9)               4.7611       0.0000      -6.5433       0.0000       0.0000       0.0000       1.7822       7.64251E-07  1.16800E-05
 ----------------------------------------------------------------------------------------------------------------------------------------------------


1
  HEAD IN LAYER   1 AT END OF TIME STEP  49 IN STRESS PERIOD    5
  ---------------------------------------------------------------------------

            1           2           3           4           5           6           7           8           9          10
 ........................................................................................................................
   1   -25.00      -24.93      -24.88      -24.85      -24.83      -24.83      -24.85      -24.88      -24.93      -25.00    
1
  HEAD IN LAYER   2 AT END OF TIME STEP  49 IN STRESS PERIOD    5
  ---------------------------------------------------------------------------

            1           2           3           4           5           6           7           8           9          10
 ........................................................................................................................
   1   -25.00      -24.93      -24.88      -24.85      -24.83      -24.83      -24.85      -24.88      -24.93      -25.00    
1
  HEAD IN LAYER   3 AT END OF TIME STEP  49 IN STRESS PERIOD    5
  ---------------------------------------------------------------------------

            1           2           3           4           5           6           7           8           9          10
 ........................................................................................................................
   1   -25.00      -24.93      -24.88      -24.85      -24.83      -24.83      -24.85      -24.88      -24.93      -25.00    

 HEAD WILL BE SAVED ON UNIT 1022 AT END OF TIME STEP   49, STRESS PERIOD    5


  UZF-1 BUDGET FOR ENTIRE MODEL AT END OF TIME STEP   49, STRESS PERIOD   5
  ------------------------------------------------------------------------------

     CUMULATIVE UZF-1      L**3       RATES FOR THIS TIME STEP      L**3/T
     ------------------                 ------------------------

           IN:                                      IN:
           ---                                      ---
                 GWF =           0.0000                   GWF =           0.0000
        INFILTRATION =      480000.0000          INFILTRATION =           0.0000
             REJ-INF =           0.0000               REJ-INF =           0.0000
                UZET =           0.0000                  UZET =           0.0000
             STORAGE =      510095.2420               STORAGE =          50.9521

            TOTAL IN =      990095.2420              TOTAL IN =          50.9521

          OUT:                                     OUT:
          ----                                     ----
                 GWF =       94165.4876                   GWF =          50.8002
        INFILTRATION =           0.0000          INFILTRATION =           0.0000
             REJ-INF =           0.0000               REJ-INF =           0.0000
                UZET =         990.1258                  UZET =           0.1492
             STORAGE =      894878.6925               STORAGE =           0.0000

           TOTAL OUT =      990034.3059             TOTAL OUT =          50.9494

            IN - OUT =          60.9361              IN - OUT =       2.7189E-03

 PERCENT DISCREPANCY =           0.01     PERCENT DISCREPANCY =           0.01



  VOLUME BUDGET FOR ENTIRE MODEL AT END OF TIME STEP   49, STRESS PERIOD   5
  ---------------------------------------------------------------------------------------------------

     CUMULATIVE VOLUME      L**3       RATES FOR THIS TIME STEP      L**3/T          PACKAGE NAME    
     ------------------                 ------------------------                     ----------------

           IN:                                      IN:
           ---                                      ---
              STO-SS =           1.2325                STO-SS =       4.0000E-03     STORAGE         
              STO-SY =        4786.5115                STO-SY =          15.5760     STORAGE         
                 CHD =           0.0000                   CHD =           0.0000     CHD-1           
           UZF-GWRCH =       94165.4876             UZF-GWRCH =          50.8002     UZF-1           
             UZF-GWD =           0.0000               UZF-GWD =           0.0000     UZF-1           
            UZF-GWET =           0.0000              UZF-GWET =           0.0000     UZF-1           

            TOTAL IN =       98953.2316              TOTAL IN =          66.3802

          OUT:                                     OUT:
          ----                                     ----
              STO-SS =           6.2557                STO-SS =           0.0000     STORAGE         
              STO-SY =       24610.3617                STO-SY =           0.0000     STORAGE         
                 CHD =       74336.6674                   CHD =          66.3806     CHD-1           
           UZF-GWRCH =           0.0000             UZF-GWRCH =           0.0000     UZF-1           
             UZF-GWD =           0.0000               UZF-GWD =           0.0000     UZF-1           
            UZF-GWET =           0.0000              UZF-GWET =           0.0000     UZF-1           

           TOTAL OUT =       98953.2848             TOTAL OUT =          66.3806

            IN - OUT =      -5.3282E-02              IN - OUT =      -3.6485E-04

 PERCENT DISCREPANCY =          -0.00     PERCENT DISCREPANCY =          -0.00




         TIME SUMMARY AT END OF TIME STEP   49 IN STRESS PERIOD    5
                    SECONDS     MINUTES      HOURS       DAYS        YEARS
                    -----------------------------------------------------------
   TIME STEP LENGTH 3.45600E+06  57600.      960.00      40.000     0.10951    
 STRESS PERIOD TIME 1.69344E+08 2.82240E+06  47040.      1960.0      5.3662    
         TOTAL TIME 2.17728E+08 3.62880E+06  60480.      2520.0      6.8994    


end timestep


start timestep kper="5" kstp="50" mode="normal"

 UBDSV1 SAVING     FLOW-JA-FACE ON UNIT   1020 AT TIME STEP     50, STRESS PERIOD      5
 UBDSV06 SAVING     FLOW-JA-FACE IN MODEL GWF_1            PACKAGE UZF-1           CONNECTED TO MODEL GWF_1            PACKAGE UZF-1            ON UNIT   1014 AT TIME STEP     50, STRESS PERIOD      5
 UBDSV06 SAVING              GWF IN MODEL GWF_1            PACKAGE UZF-1           CONNECTED TO MODEL GWF_1            PACKAGE GWF_1            ON UNIT   1014 AT TIME STEP     50, STRESS PERIOD      5
 UBDSV06 SAVING     INFILTRATION IN MODEL GWF_1            PACKAGE UZF-1           CONNECTED TO MODEL GWF_1            PACKAGE UZF-1            ON UNIT   1014 AT TIME STEP     50, STRESS PERIOD      5
 UBDSV06 SAVING          REJ-INF IN MODEL GWF_1            PACKAGE UZF-1           CONNECTED TO MODEL GWF_1            PACKAGE UZF-1            ON UNIT   1014 AT TIME STEP     50, STRESS PERIOD      5
 UBDSV06 SAVING             UZET IN MODEL GWF_1            PACKAGE UZF-1           CONNECTED TO MODEL GWF_1            PACKAGE UZF-1            ON UNIT   1014 AT TIME STEP     50, STRESS PERIOD      5
 UBDSV06 SAVING          STORAGE IN MODEL GWF_1            PACKAGE UZF-1           CONNECTED TO MODEL GWF_1            PACKAGE UZF-1            ON UNIT   1014 AT TIME STEP     50, STRESS PERIOD      5

 CHD PACKAGE (CHD-1) FLOW RATES   PERIOD      5   STEP       50
 -----------------------------------------------
   NUMBER   CELLID                    RATE      
 -----------------------------------------------
     1      (3,1,1)              -32.099459     
     2      (3,1,10)             -32.099459     
 -----------------------------------------------




 UZF-GWRCH PACKAGE (UZF-1) FLOW RATES   PERIOD      5   STEP       50
 ----------------------------------------------------------------------------------------
   NUMBER   CELLID                    RATE       NAME                                    
 ----------------------------------------------------------------------------------------
     1      (1,1,2)               0.0000000      UZF01                                   
     2      (1,1,3)               0.0000000      UZF02                                   
     3      (1,1,4)               0.0000000      UZF03                                   
     4      (1,1,5)               0.0000000      UZF04                                   
     5      (1,1,6)               0.0000000      UZF05                                   
     6      (1,1,7)               0.0000000      UZF06                                   
     7      (1,1,8)               0.0000000      UZF07                                   
     8      (1,1,9)               0.0000000      UZF08                                   
     9      (2,1,2)               0.0000000      UZF08                                   
     10     (2,1,3)               0.0000000      UZF10                                   
     11     (2,1,4)               0.0000000      UZF11                                   
     12     (2,1,5)               0.0000000      UZF12                                   
     13     (2,1,6)               0.0000000      UZF13                                   
     14     (2,1,7)               0.0000000      UZF14                                   
     15     (2,1,8)               0.0000000      UZF15                                   
     16     (2,1,9)               0.0000000      UZF16                                   
     17     (3,1,2)               6.2732367      UZF17                                   
     18     (3,1,3)               6.1780220      UZF18                                   
     19     (3,1,4)               6.1203575      UZF19                                   
     20     (3,1,5)               6.0930261      UZF20                                   
     21     (3,1,6)               6.0930261      UZF21                                   
     22     (3,1,7)               6.1203575      UZF22                                   
     23     (3,1,8)               6.1780220      UZF23                                   
     24     (3,1,9)               6.2732367      UZF24                                   
 ----------------------------------------------------------------------------------------




 UZF-GWD PACKAGE (UZF-1) FLOW RATES   PERIOD      5   STEP       50
 ----------------------------------------------------------------------------------------
   NUMBER   CELLID                    RATE       NAME                                    
 ----------------------------------------------------------------------------------------
     1      (1,1,2)               0.0000000      UZF01                                   
     2      (1,1,3)               0.0000000      UZF02                                   
     3      (1,1,4)               0.0000000      UZF03                                   
     4      (1,1,5)               0.0000000      UZF04                                   
     5      (1,1,6)               0.0000000      UZF05                                   
     6      (1,1,7)               0.0000000      UZF06                                   
     7      (1,1,8)               0.0000000      UZF07                                   
     8      (1,1,9)               0.0000000      UZF08                                   
     9      (2,1,2)               0.0000000      UZF08                                   
     10     (2,1,3)               0.0000000      UZF10                                   
     11     (2,1,4)               0.0000000      UZF11                                   
     12     (2,1,5)               0.0000000      UZF12                                   
     13     (2,1,6)               0.0000000      UZF13                                   
     14     (2,1,7)               0.0000000      UZF14                                   
     15     (2,1,8)               0.0000000      UZF15                                   
     16     (2,1,9)               0.0000000      UZF16                                   
     17     (3,1,2)               0.0000000      UZF17                                   
     18     (3,1,3)               0.0000000      UZF18                                   
     19     (3,1,4)               0.0000000      UZF19                                   
     20     (3,1,5)               0.0000000      UZF20                                   
     21     (3,1,6)               0.0000000      UZF21                                   
     22     (3,1,7)               0.0000000      UZF22                                   
     23     (3,1,8)               0.0000000      UZF23                                   
     24     (3,1,9)               0.0000000      UZF24                                   
 ----------------------------------------------------------------------------------------




 UZF-GWET PACKAGE (UZF-1) FLOW RATES   PERIOD      5   STEP       50
 ----------------------------------------------------------------------------------------
   NUMBER   CELLID                    RATE       NAME                                    
 ----------------------------------------------------------------------------------------
     1      (1,1,2)               0.0000000      UZF01                                   
     2      (1,1,3)               0.0000000      UZF02                                   
     3      (1,1,4)               0.0000000      UZF03                                   
     4      (1,1,5)               0.0000000      UZF04                                   
     5      (1,1,6)               0.0000000      UZF05                                   
     6      (1,1,7)               0.0000000      UZF06                                   
     7      (1,1,8)               0.0000000      UZF07                                   
     8      (1,1,9)               0.0000000      UZF08                                   
     9      (2,1,2)               0.0000000      UZF08                                   
     10     (2,1,3)               0.0000000      UZF10                                   
     11     (2,1,4)               0.0000000      UZF11                                   
     12     (2,1,5)               0.0000000      UZF12                                   
     13     (2,1,6)               0.0000000      UZF13                                   
     14     (2,1,7)               0.0000000      UZF14                                   
     15     (2,1,8)               0.0000000      UZF15                                   
     16     (2,1,9)               0.0000000      UZF16                                   
     17     (3,1,2)               0.0000000      UZF17                                   
     18     (3,1,3)               0.0000000      UZF18                                   
     19     (3,1,4)               0.0000000      UZF19                                   
     20     (3,1,5)               0.0000000      UZF20                                   
     21     (3,1,6)               0.0000000      UZF21                                   
     22     (3,1,7)               0.0000000      UZF22                                   
     23     (3,1,8)               0.0000000      UZF23                                   
     24     (3,1,9)               0.0000000      UZF24                                   
 ----------------------------------------------------------------------------------------




 UZF-1 PACKAGE - SUMMARY OF FLOWS FOR EACH CONTROL VOLUME   PERIOD      5   STEP       50
 ----------------------------------------------------------------------------------------------------------------------------------------------------
                                                                                                                                           PERCENT   
   NUMBER   CELLID                  INFLOW      OUTFLOW        GWF      INFILTRATION   REJ INF        UZET       STORAGE      IN - OUT    DIFFERENCE 
 ----------------------------------------------------------------------------------------------------------------------------------------------------
     1      (1,1,2)               0.0000      -1.1760       0.0000       0.0000       0.0000       0.0000       1.1760       2.33147E-14  1.98249E-12
     2      (1,1,3)               0.0000      -1.1760       0.0000       0.0000       0.0000       0.0000       1.1760       2.33147E-14  1.98249E-12
     3      (1,1,4)               0.0000      -1.1760       0.0000       0.0000       0.0000       0.0000       1.1760       2.33147E-14  1.98249E-12
     4      (1,1,5)               0.0000      -1.1760       0.0000       0.0000       0.0000       0.0000       1.1760       2.33147E-14  1.98249E-12
     5      (1,1,6)               0.0000      -1.1760       0.0000       0.0000       0.0000       0.0000       1.1760       2.33147E-14  1.98249E-12
     6      (1,1,7)               0.0000      -1.1760       0.0000       0.0000       0.0000       0.0000       1.1760       2.33147E-14  1.98249E-12
     7      (1,1,8)               0.0000      -1.1760       0.0000       0.0000       0.0000       0.0000       1.1760       2.33147E-14  1.98249E-12
     8      (1,1,9)               0.0000      -1.1760       0.0000       0.0000       0.0000       0.0000       1.1760       2.33147E-14  1.98249E-12
     9      (2,1,2)               1.1760      -4.7591       0.0000       0.0000       0.0000      -1.75789E-02  3.6009       3.36060E-04  7.03525E-03
     10     (2,1,3)               1.1760      -4.7591       0.0000       0.0000       0.0000      -1.75789E-02  3.6009       3.36060E-04  7.03525E-03
     11     (2,1,4)               1.1760      -4.7591       0.0000       0.0000       0.0000      -1.75789E-02  3.6009       3.36060E-04  7.03525E-03
     12     (2,1,5)               1.1760      -4.7591       0.0000       0.0000       0.0000      -1.75789E-02  3.6009       3.36060E-04  7.03525E-03
     13     (2,1,6)               1.1760      -4.7591       0.0000       0.0000       0.0000      -1.75789E-02  3.6009       3.36060E-04  7.03525E-03
     14     (2,1,7)               1.1760      -4.7591       0.0000       0.0000       0.0000      -1.75789E-02  3.6009       3.36060E-04  7.03525E-03
     15     (2,1,8)               1.1760      -4.7591       0.0000       0.0000       0.0000      -1.75789E-02  3.6009       3.36060E-04  7.03525E-03
     16     (2,1,9)               1.1760      -4.7591       0.0000       0.0000       0.0000      -1.75789E-02  3.6009       3.36060E-04  7.03525E-03
     17     (3,1,2)               4.7591       0.0000      -6.2732       0.0000       0.0000       0.0000       1.5142       7.64007E-07  1.21788E-05
     18     (3,1,3)               4.7591       0.0000      -6.1780       0.0000       0.0000       0.0000       1.4190       7.64007E-07  1.23665E-05
     19     (3,1,4)               4.7591       0.0000      -6.1204       0.0000       0.0000       0.0000       1.3613       7.64008E-07  1.24831E-05
     20     (3,1,5)               4.7591       0.0000      -6.0930       0.0000       0.0000       0.0000       1.3340       7.64007E-07  1.25390E-05
     21     (3,1,6)               4.7591       0.0000      -6.0930       0.0000       0.0000       0.0000       1.3340       7.64007E-07  1.25390E-05
     22     (3,1,7)               4.7591       0.0000      -6.1204       0.0000       0.0000       0.0000       1.3613       7.64007E-07  1.24830E-05
     23     (3,1,8)               4.7591       0.0000      -6.1780       0.0000       0.0000       0.0000       1.4190       7.64007E-07  1.23665E-05
     24     (3,1,9)               4.7591       0.0000      -6.2732       0.0000       0.0000       0.0000       1.5142       7.64007E-07  1.21788E-05
 ----------------------------------------------------------------------------------------------------------------------------------------------------


1
  HEAD IN LAYER   1 AT END OF TIME STEP  50 IN STRESS PERIOD    5
  ---------------------------------------------------------------------------

            1           2           3           4           5           6           7           8           9          10
 ........................................................................................................................
   1   -25.00      -24.94      -24.89      -24.86      -24.84      -24.84      -24.86      -24.89      -24.94      -25.00    
1
  HEAD IN LAYER   2 AT END OF TIME STEP  50 IN STRESS PERIOD    5
  ---------------------------------------------------------------------------

            1           2           3           4           5           6           7           8           9          10
 ........................................................................................................................
   1   -25.00      -24.94      -24.89      -24.86      -24.84      -24.84      -24.86      -24.89      -24.94      -25.00    
1
  HEAD IN LAYER   3 AT END OF TIME STEP  50 IN STRESS PERIOD    5
  ---------------------------------------------------------------------------

            1           2           3           4           5           6           7           8           9          10
 ........................................................................................................................
   1   -25.00      -24.94      -24.89      -24.86      -24.84      -24.84      -24.86      -24.89      -24.94      -25.00    

 HEAD WILL BE SAVED ON UNIT 1022 AT END OF TIME STEP   50, STRESS PERIOD    5


  UZF-1 BUDGET FOR ENTIRE MODEL AT END OF TIME STEP   50, STRESS PERIOD   5
  ------------------------------------------------------------------------------

     CUMULATIVE UZF-1      L**3       RATES FOR THIS TIME STEP      L**3/T
     ------------------                 ------------------------

           IN:                                      IN:
           ---                                      ---
                 GWF =           0.0000                   GWF =           0.0000
        INFILTRATION =      480000.0000          INFILTRATION =           0.0000
             REJ-INF =           0.0000               REJ-INF =           0.0000
                UZET =           0.0000                  UZET =           0.0000
             STORAGE =      512074.1464               STORAGE =          49.4726

            TOTAL IN =      992074.1464              TOTAL IN =          49.4726

          OUT:                                     OUT:
          ----                                     ----
                 GWF =       96138.6589                   GWF =          49.3293
        INFILTRATION =           0.0000          INFILTRATION =           0.0000
             REJ-INF =           0.0000               REJ-INF =           0.0000
                UZET =         995.7510                  UZET =           0.1406
             STORAGE =      894878.6925               STORAGE =           0.0000

           TOTAL OUT =      992013.1025             TOTAL OUT =          49.4699

            IN - OUT =          61.0439              IN - OUT =       2.6946E-03

 PERCENT DISCREPANCY =           0.01     PERCENT DISCREPANCY =           0.01



  VOLUME BUDGET FOR ENTIRE MODEL AT END OF TIME STEP   50, STRESS PERIOD   5
  ---------------------------------------------------------------------------------------------------

     CUMULATIVE VOLUME      L**3       RATES FOR THIS TIME STEP      L**3/T          PACKAGE NAME    
     ------------------                 ------------------------                     ----------------

           IN:                                      IN:
           ---                                      ---
              STO-SS =           1.3851                STO-SS =       3.8148E-03     STORAGE         
              STO-SY =        5381.1303                STO-SY =          14.8655     STORAGE         
                 CHD =           0.0000                   CHD =           0.0000     CHD-1           
           UZF-GWRCH =       96138.6589             UZF-GWRCH =          49.3293     UZF-1           
             UZF-GWD =           0.0000               UZF-GWD =           0.0000     UZF-1           
            UZF-GWET =           0.0000              UZF-GWET =           0.0000     UZF-1           

            TOTAL IN =      101521.1743              TOTAL IN =          64.1986

          OUT:                                     OUT:
          ----                                     ----
              STO-SS =           6.2557                STO-SS =           0.0000     STORAGE         
              STO-SY =       24610.3617                STO-SY =           0.0000     STORAGE         
                 CHD =       76904.6242                   CHD =          64.1989     CHD-1           
           UZF-GWRCH =           0.0000             UZF-GWRCH =           0.0000     UZF-1           
             UZF-GWD =           0.0000               UZF-GWD =           0.0000     UZF-1           
            UZF-GWET =           0.0000              UZF-GWET =           0.0000     UZF-1           

           TOTAL OUT =      101521.2416             TOTAL OUT =          64.1989

            IN - OUT =      -6.7251E-02              IN - OUT =      -3.4924E-04

 PERCENT DISCREPANCY =          -0.00     PERCENT DISCREPANCY =          -0.00




         TIME SUMMARY AT END OF TIME STEP   50 IN STRESS PERIOD    5
                    SECONDS     MINUTES      HOURS       DAYS        YEARS
                    -----------------------------------------------------------
   TIME STEP LENGTH 3.45600E+06  57600.      960.00      40.000     0.10951    
 STRESS PERIOD TIME 1.72800E+08 2.88000E+06  48000.      2000.0      5.4757    
         TOTAL TIME 2.21184E+08 3.68640E+06  61440.      2560.0      7.0089    


end timestep

