 LISTING FILE: linear_pulse_mt.list
                         UNIT  16

 OPENING mt3d_link.ftl
 FILE TYPE:FTL   UNIT  10

 OPENING linear_pulse_mt.btn
 FILE TYPE:BTN   UNIT  31

 OPENING linear_pulse_mt.adv
 FILE TYPE:ADV   UNIT  32

 OPENING linear_pulse_mt.dsp
 FILE TYPE:DSP   UNIT  33

 OPENING linear_pulse_mt.ssm
 FILE TYPE:SSM   UNIT  34

 OPENING linear_pulse_mt.rct
 FILE TYPE:RCT   UNIT  36

 OPENING linear_pulse_mt.gcg
 FILE TYPE:GCG   UNIT  35

                              +++++++++++++++++++++++++++++++++++++++++++++++++++++++++++++++++++++++
                              +                                                                     +
                              +                              MT3D-USGS                              +
                              +             A Modular 3D Multi-Species Transport Model              +
                              +    For Simulation of Advection, Dispersion and Chemical Reactions   +
                              +                of Contaminants in Groundwater Systems               +
                              +                                                                     +
                              +++++++++++++++++++++++++++++++++++++++++++++++++++++++++++++++++++++++

  ----- 
 | M T | ## BTN for MT3DMS, generated by Flopy.                                          
 | 3 D | ##                                                                              
  ----- 
 THE TRANSPORT MODEL CONSISTS OF     1 LAYER(S)    1 ROW(S)  101 COLUMN(S)
 NUMBER OF STRESS PERIOD(S) FOR TRANSPORT SIMULATION =    2
 NUMBER OF ALL COMPONENTS INCLUDED IN SIMULATION =    1
 NUMBER OF MOBILE COMPONENTS INCLUDED IN SIMULATION =    1
 UNIT FOR TIME IS S   ;  UNIT FOR LENGTH IS CM  ;  UNIT FOR MASS IS KG  
 OPTIONAL PACKAGES INCLUDED IN CURRENT SIMULATION:
  o ADV   ON UNIT 32
  o DSP   ON UNIT 33
  o SSM   ON UNIT 34
  o RCT   ON UNIT 36
  o GCG   ON UNIT 35


 BTN1 -- BASIC TRANSPORT PACKAGE, VERSION 1, MAY 2016, INPUT READ FROM UNIT 31

 BTN PACKAGE KEYWORD INPUT: 
 DRYCELL OPTION NOT SET
  DRY CELL BUDGET OMITTED FROM GLOBAL MASS BALANCE SUMMARY

 LAYER NUMBER  AQUIFER TYPE
 ------------  ------------
       1            0
                                       WIDTH ALONG ROWS (DELR)  =  0.2000000    
                                       WIDTH ALONG COLS (DELC)  =   4.400000    
                                       TOP ELEV. OF 1ST LAYER   =   0.000000    

                     CELL THICKNESS (DZ)      FOR LAYER  1 READ ON UNIT  31 USING FORMAT: "         (101E15.6) "
                     ------------------------------------------------------------------------------------------
                                       POROSITY                 =  0.3000000     FOR LAYER  1

                     CONCN. BOUNDARY ARRAY    FOR LAYER  1 READ ON UNIT  31 USING FORMAT: "           (101I10) "
                     ------------------------------------------------------------------------------------------

                     INITIAL CONC.: COMP.  01 FOR LAYER  1 READ ON UNIT  31 USING FORMAT: "         (101E15.6) "
                     ------------------------------------------------------------------------------------------

 VALUE INDICATING INACTIVE CONCENTRATION CELLS =   0.1000000E+31
 MINIMUM SATURATED THICKNESS [THKMIN] ALLOWED =  0.0100000 OF TOTAL CELL THICKNESS


 OUTPUT CONTROL OPTIONS
 ----------------------

 DO NOT PRINT CELL CONCENTRATION
 DO NOT PRINT PARTICLE NUMBER IN EACH CELL
 DO NOT PRINT RETARDATION FACTOR
 DO NOT PRINT DISPERSION COEFFICIENT
 SAVE DISSOLVED PHASE CONCENTRATIONS IN UNFORMATTED FILES [MT3Dnnn.UCN]
  FOR EACH SPECIES ON UNITS 201 AND ABOVE

 NUMBER OF TIMES AT WHICH SIMULATION RESULTS ARE SAVED =  100
 TOTAL ELAPSED TIMES AT WHICH SIMULATION RESULTS ARE SAVED: 
    0.0000       91.200       182.40       273.60       364.80       456.00       547.20       638.40    
    729.60       820.80       912.00       1003.2       1094.4       1185.6       1276.8       1368.0    
    1459.2       1550.4       1641.6       1732.8       1824.0       1915.2       2006.4       2097.6    
    2188.8       2280.0       2371.2       2462.4       2553.6       2644.8       2736.0       2827.2    
    2918.4       3009.6       3100.8       3192.0       3283.2       3374.4       3465.6       3556.8    
    3648.0       3739.2       3830.4       3921.6       4012.8       4104.0       4195.2       4286.4    
    4377.6       4468.8       4560.0       4651.2       4742.4       4833.6       4924.8       5016.0    
    5107.2       5198.4       5289.6       5380.8       5472.0       5563.2       5654.4       5745.6    
    5836.8       5928.0       6019.2       6110.4       6201.6       6292.8       6384.0       6475.2    
    6566.4       6657.6       6748.8       6840.0       6931.2       7022.4       7113.6       7204.8    
    7296.0       7387.2       7478.4       7569.6       7660.8       7752.0       7843.2       7934.4    
    8025.6       8116.8       8208.0       8299.2       8390.4       8481.6       8572.8       8664.0    
    8755.2       8846.4       8937.6       9028.8    

 NUMBER OF OBSERVATION POINTS =    0

 SAVE ONE-LINE SUMMARY OF MASS BUDGETS IN FILES [MT3Dnnn.MAS]
  FOR EACH SPECIES ON UNITS 601 AND ABOVE, EVERY  1 TRANSPORT STEPS

 MAXIMUM LENGTH ALONG THE X (J) AXIS =   20.20000    
 MAXIMUM LENGTH ALONG THE Y (I) AXIS =   4.400000    
 MAXIMUM LENGTH ALONG THE Z (K) AXIS =   4.400000    
 FMI1 -- FLOW MODEL INTERFACE PACKAGE, VERSION 1, MAY 2016, INPUT READ FROM UNIT 10
 FLOW MODEL IS STEADY-STATE
 FLOW MODEL CONTAINS CONSTANT-HEAD CELLS


 ADV1 -- ADVECTION PACKAGE, VERSION 1, MAY 2016, INPUT READ FROM UNIT 32
 ADVECTION IS SOLVED WITH THE [MOC] SCHEME
 COURANT NUMBER ALLOWED IN SOLVING THE ADVECTION TERM = 0.750    
 MAXIMUM NUMBER OF MOVING PARTICLES ALLOWED =  800000


 ADVECTION SOLUTION OPTIONS
 --------------------------

 ADVECTION IS SOLVED WITH THE [MOC] SCHEME
 COURANT NUMBER ALLOWED IN SOLVING THE ADVECTION TERM = 0.750    
 MAXIMUM NUMBER OF MOVING PARTICLES ALLOWED =  800000
 METHOD FOR PARTICLE TRACKING IS [MIXED ORDER]
 CONCENTRATION WEIGHTING FACTOR [WD] =     0.500
 THE CONCENTRATION GRADIENT CONSIDERED NEGLIGIBLE [DCEPS] =  0.1000000E-04
 INITIAL PARTICLES ARE PLACED ON  2 VERTICAL PLANE(S) WITHIN CELL BLOCK
 PARTICLE NUMBER PER CELL IF DCCELL =< DCEPS =   10
 PARTICLE NUMBER PER CELL IF DCCELL  > DCEPS =   40
 MINIMUM PARTICLE NUMBER ALLOWED PER CELL    =    5
 MAXIMUM PARTICLE NUMBER ALLOWED PER CELL    =   80
 MULTIPLIER OF PARTICLE NUMBER AT SOURCE     =  1.00    

 DSP1 -- DISPERSION PACKAGE, VERSION 1, MAY 2016, INPUT READ FROM UNIT 33


 DISPERSION INPUT PARAMETERS
 ---------------------------

                                       LONG. DISPERSIVITY (AL)  =  0.3000000     FOR LAYER  1
                                       H. TRANS./LONG. DISP.    =  0.1000000    
                                       V. TRANS./LONG. DISP.    =  0.1000000E-01
                                       DIFFUSION COEFFICIENT    =  0.1000000E-08

 SSM1 -- SINK & SOURCE MIXING PACKAGE, VERSION 1, MAY 2016, INPUT READ FROM UNIT 34
 HEADER LINE OF THE SSM PACKAGE INPUT FILE:
  F F F F F F F F F F F F F F F F                                        
 MAJOR STRESS COMPONENTS PRESENT IN THE FLOW MODEL:
 MAXIMUM NUMBER OF POINT SINKS/SOURCES =       4

 RCT1 -- CHEMICAL REACTION PACKAGE, VERSION 1, MAY 2016, INPUT READ FROM UNIT 36
 TYPE OF SORPTION SELECTED IS [LINEAR]
 NO FIRST-ORDER RATE REACTION IS SIMULATED
 REACTION COEFFICIENTS ASSIGNED CELL-BY-CELL
 INITIAL SORBED/IMMOBILE PHASE CONCENTRATION ASSIGNED BY DEFAULT
 SAVE SORBED/IMMOBILE PHASE CONCENTRATIONS IN UNFORMATTED FILES [MT3DnnnS.UCN]
  FOR EACH SPECIES ON UNITS 301 AND ABOVE, IF SORPTION/MASS TRANSFER SIMULATED


 SORPTION AND 1ST/0TH ORDER REACTION PARAMETERS
 ----------------------------------------------

                                       BULK DENSITY (RHOB)      =   1.600000     FOR LAYER  1
                                       1ST SORP. COEF. COMP. 01 =  0.4000000     FOR LAYER  1
                                       2ND SORP. COEF. COMP. 01 =   0.000000     FOR LAYER  1

 GCG1 -- GENERALIZED CONJUGATE GRADIENT SOLVER PACKAGE, VERSION 1, OCTOBER 2010 INPUT READ FROM UNIT 35
 MAXIMUM OF    1 OUTER ITERATIONS
        AND   50 INNER ITERATIONS ALLOWED FOR CLOSURE
 THE PRECONDITIONING TYPE SELECTED IS MODIFIED INCOMPLETE CHOLESKY (MIC).
 DISPERSION CROSS TERMS LUMPED INTO RIGHT-HAND-SIDE



                                               SOLUTION BY THE GENERALIZED CONJUGATE GRADIENT METHOD
                                               -----------------------------------------------------
                                     MAXIMUM OUTER ITERATIONS ALLOWED FOR CLOSURE =        1
                                     MAXIMUM INNER ITERATIONS ALLOWED FOR CLOSURE =       50
                                                    PRECONDITIONING TYPE SELECTED =    3
                                                           ACCELERATION PARAMETER =     1.0000    
                                       CONCENTRATION CHANGE CRITERION FOR CLOSURE =    0.10000E-04
                                       GCG CONCENTRATION CHANGE PRINTOUT INTERVAL =      999


                                   ++++++++++++++++++++++++++++++++++++++++++++++++++++++++++++++
                                                       STRESS PERIOD NO.  001
                                   ++++++++++++++++++++++++++++++++++++++++++++++++++++++++++++++


 LENGTH OF CURRENT STRESS PERIOD =   120.0000    
 NUMBER OF TIME STEPS FOR CURRENT STRESS PERIOD =    1
 TIME STEP MULTIPLIER USED IN FLOW SOLUTION =   1.000000    

 ***Type of Transport Simulation is TRANSIENT

 USER-SPECIFIED TRANSPORT STEPSIZE =   0.000000    S   
 MAXIMUM NUMBER OF TRANSPORT STEPS ALLOWED  IN ONE FLOW TIME STEP =     50000
 MULTIPLIER FOR SUCCESSIVE TRANSPORT STEPS  [USED IN IMPLICIT SCHEMES] =     1.000
 MAXIMUM TRANSPORT STEP SIZE  [USED IN IMPLICIT SCHEMES] =   0.000000    S   

       NO    LAYER   ROW   COLUMN   CONCENTRATION       TYPE            COMPONENT
       1       1       1       1       1.000000         CONSTANT CONC.      1


                                          ================================================
                                                         TIME STEP NO.  001
                                          ================================================

 FROM TIME =   0.0000     TO    120.00    


                    "THKSAT          " FLOW TERMS FOR TIME STEP  1, STRESS PERIOD  1 READ UNFORMATTED ON UNIT 10
                    --------------------------------------------------------------------------------------------

                    "QXX             " FLOW TERMS FOR TIME STEP  1, STRESS PERIOD  1 READ UNFORMATTED ON UNIT 10
                    --------------------------------------------------------------------------------------------

 MAXIMUM STEPSIZE DURING WHICH ANY PARTICLE CANNOT MOVE MORE THAN ONE CELL
 =  14.29    (WHEN MIN. R.F.=1)  AT K=   1, I=   1, J=   2

 MAXIMUM STEPSIZE WHICH MEETS STABILITY CRITERION OF THE ADVECTION TERM
 (FOR PURE FINITE-DIFFERENCE OPTION, MIXELM=0) 
 =  14.29    (WHEN MIN. R.F.=1)  AT K=   1, I=   1, J=   2

                    "CNH             " FLOW TERMS FOR TIME STEP  1, STRESS PERIOD  1 READ UNFORMATTED ON UNIT 10
                    --------------------------------------------------------------------------------------------


 TOTAL NUMBER OF POINT SOURCES/SINKS PRESENT IN THE FLOW MODEL =     3

 MAXIMUM STEPSIZE WHICH MEETS STABILITY CRITERION OF THE SINK & SOURCE TERM
 =  14.29    (WHEN MIN. R.F.=1)  AT K=   1, I=   1, J=   1

 MAXIMUM STEPSIZE WHICH MEETS STABILITY CRITERION OF THE DISPERSION TERM
 =  4.762    (WHEN MIN. R.F.=1)  AT K=   1, I=   1, J=   1



 >>>>>>>>>>>>>>>>>>>>>>>>>>>>>>>>>>>>>>>>>>>>>>>>>>>>>>>FOR COMPONENT NO. 01<<<<<<<<<<<<<<<<<<<<<<<<<<<<<<<<<<<<<<<<<<<<<<<<<<<<<<<


                                            -------------------------------------------
                                                      TRANSPORT STEP NO.    1
                                            -------------------------------------------

 TOTAL ELAPSED TIME SINCE BEGINNING OF SIMULATION =   0.000000    S   
 .....................................................................

 TOTAL PARTICLES USED IN THE CURRENT STEP =      1054
 PARTICLES ADDED AT BEGINNING OF THE STEP =      1054
 PARTICLES REMOVED AT END OF LAST STEP    =         0

                     CUMULATIVE MASS BUDGETS AT END OF TRANSPORT STEP    1, TIME STEP    1, STRESS PERIOD    1
                     -----------------------------------------------------------------------------------------

                                                             IN                           OUT
                                                      ----------------             ----------------
                               CONSTANT CONCENTRATION:    0.000000                    0.000000    
                                        CONSTANT HEAD:    0.000000                    0.000000    
                               1ST/0TH ORDER REACTION:    0.000000                    0.000000    
                               MASS STOR (FLOW MODEL):    0.000000                    0.000000    
                                MASS STORAGE (SOLUTE):    0.000000                    0.000000    
                                MASS STORAGE (SORBED):    0.000000                    0.000000    
                            ---------------------------------------------------------------------------
                                              [TOTAL]:    0.000000     KG             0.000000     KG  

                                                          NET (IN - OUT):    0.000000    
                                                   DISCREPANCY (PERCENT):    0.000000    
     1 CALLS TO GCG PACKAGE FOR TRANSPORT TIME STEP     2 IN FLOW TIME STEP     1 STRESS PERIOD     1
      2 TOTAL ITERATIONS
     1 CALLS TO GCG PACKAGE FOR TRANSPORT TIME STEP     3 IN FLOW TIME STEP     1 STRESS PERIOD     1
      2 TOTAL ITERATIONS
     1 CALLS TO GCG PACKAGE FOR TRANSPORT TIME STEP     4 IN FLOW TIME STEP     1 STRESS PERIOD     1
      2 TOTAL ITERATIONS



 >>>>>>>>>>>>>>>>>>>>>>>>>>>>>>>>>>>>>>>>>>>>>>>>>>>>>>>FOR COMPONENT NO. 01<<<<<<<<<<<<<<<<<<<<<<<<<<<<<<<<<<<<<<<<<<<<<<<<<<<<<<<


                                            -------------------------------------------
                                                      TRANSPORT STEP NO.    4
                                            -------------------------------------------

 TOTAL ELAPSED TIME SINCE BEGINNING OF SIMULATION =   91.20000    S   
 .....................................................................

 TOTAL PARTICLES USED IN THE CURRENT STEP =      1054
 PARTICLES ADDED AT BEGINNING OF THE STEP =         0
 PARTICLES REMOVED AT END OF LAST STEP    =         0

                     CUMULATIVE MASS BUDGETS AT END OF TRANSPORT STEP    4, TIME STEP    1, STRESS PERIOD    1
                     -----------------------------------------------------------------------------------------

                                                             IN                           OUT
                                                      ----------------             ----------------
                               CONSTANT CONCENTRATION:    9.932568                    0.000000    
                                        CONSTANT HEAD:    0.000000                  -0.5642099E-36
                               1ST/0TH ORDER REACTION:    0.000000                    0.000000    
                               MASS STOR (FLOW MODEL):    0.000000                    0.000000    
                                MASS STORAGE (SOLUTE):   0.8566110E-02               -3.070604    
                                MASS STORAGE (SORBED):   0.1827437E-01               -6.550623    
                            ---------------------------------------------------------------------------
                                              [TOTAL]:    9.959408     KG            -9.621227     KG  

                                                          NET (IN - OUT):   0.3381805    
                                                   DISCREPANCY (PERCENT):    3.454235    
     1 CALLS TO GCG PACKAGE FOR TRANSPORT TIME STEP     5 IN FLOW TIME STEP     1 STRESS PERIOD     1
      2 TOTAL ITERATIONS
  MAXIMUM CONCENTRATION CHANGES FOR EACH ITERATION:
  MAX. CHANGE LAYER,ROW,COL MAX. CHANGE LAYER,ROW,COL MAX. CHANGE LAYER,ROW,COL MAX. CHANGE LAYER,ROW,COL MAX. CHANGE LAYER,ROW,COL
 ------------------------------------------------------------------------------------------------------------------------------------
   0.4796E-01 (  1,  1,  3)  0.9313E-09 (  1,  1, 11)



 >>>>>>>>>>>>>>>>>>>>>>>>>>>>>>>>>>>>>>>>>>>>>>>>>>>>>>>FOR COMPONENT NO. 01<<<<<<<<<<<<<<<<<<<<<<<<<<<<<<<<<<<<<<<<<<<<<<<<<<<<<<<


                                            -------------------------------------------
                                                      TRANSPORT STEP NO.    5
                                            -------------------------------------------

 TOTAL ELAPSED TIME SINCE BEGINNING OF SIMULATION =   120.0000    S   
 .....................................................................

 TOTAL PARTICLES USED IN THE CURRENT STEP =      1086
 PARTICLES ADDED AT BEGINNING OF THE STEP =        32
 PARTICLES REMOVED AT END OF LAST STEP    =         0

                     CUMULATIVE MASS BUDGETS AT END OF TRANSPORT STEP    5, TIME STEP    1, STRESS PERIOD    1
                     -----------------------------------------------------------------------------------------

                                                             IN                           OUT
                                                      ----------------             ----------------
                               CONSTANT CONCENTRATION:    12.61073                    0.000000    
                                        CONSTANT HEAD:    0.000000                  -0.8927168E-35
                               1ST/0TH ORDER REACTION:    0.000000                    0.000000    
                               MASS STOR (FLOW MODEL):    0.000000                    0.000000    
                                MASS STORAGE (SOLUTE):   0.8566110E-02               -3.927263    
                                MASS STORAGE (SORBED):   0.1827437E-01               -8.378160    
                            ---------------------------------------------------------------------------
                                              [TOTAL]:    12.63757     KG            -12.30542     KG  

                                                          NET (IN - OUT):   0.3321495    
                                                   DISCREPANCY (PERCENT):    2.663269    


                                   ++++++++++++++++++++++++++++++++++++++++++++++++++++++++++++++
                                                       STRESS PERIOD NO.  002
                                   ++++++++++++++++++++++++++++++++++++++++++++++++++++++++++++++


 LENGTH OF CURRENT STRESS PERIOD =   9000.000    
 NUMBER OF TIME STEPS FOR CURRENT STRESS PERIOD =    1
 TIME STEP MULTIPLIER USED IN FLOW SOLUTION =   1.000000    

 ***Type of Transport Simulation is TRANSIENT

 USER-SPECIFIED TRANSPORT STEPSIZE =   0.000000    S   
 MAXIMUM NUMBER OF TRANSPORT STEPS ALLOWED  IN ONE FLOW TIME STEP =     50000
 MULTIPLIER FOR SUCCESSIVE TRANSPORT STEPS  [USED IN IMPLICIT SCHEMES] =     1.000
 MAXIMUM TRANSPORT STEP SIZE  [USED IN IMPLICIT SCHEMES] =   0.000000    S   

       NO    LAYER   ROW   COLUMN   CONCENTRATION       TYPE            COMPONENT
       1       1       1       1       0.000000         CONSTANT CONC.      1


                                          ================================================
                                                         TIME STEP NO.  001
                                          ================================================

 FROM TIME =   120.00     TO    9120.0    



     1 CALLS TO GCG PACKAGE FOR TRANSPORT TIME STEP     1 IN FLOW TIME STEP     1 STRESS PERIOD     2
      2 TOTAL ITERATIONS
     1 CALLS TO GCG PACKAGE FOR TRANSPORT TIME STEP     2 IN FLOW TIME STEP     1 STRESS PERIOD     2
      2 TOTAL ITERATIONS



 >>>>>>>>>>>>>>>>>>>>>>>>>>>>>>>>>>>>>>>>>>>>>>>>>>>>>>>FOR COMPONENT NO. 01<<<<<<<<<<<<<<<<<<<<<<<<<<<<<<<<<<<<<<<<<<<<<<<<<<<<<<<


                                            -------------------------------------------
                                                      TRANSPORT STEP NO.    2
                                            -------------------------------------------

 TOTAL ELAPSED TIME SINCE BEGINNING OF SIMULATION =   182.4000    S   
 .....................................................................

 TOTAL PARTICLES USED IN THE CURRENT STEP =      1118
 PARTICLES ADDED AT BEGINNING OF THE STEP =         0
 PARTICLES REMOVED AT END OF LAST STEP    =         0

                     CUMULATIVE MASS BUDGETS AT END OF TRANSPORT STEP    2, TIME STEP    1, STRESS PERIOD    2
                     -----------------------------------------------------------------------------------------

                                                             IN                           OUT
                                                      ----------------             ----------------
                               CONSTANT CONCENTRATION:    12.61073                   -1.267407    
                                        CONSTANT HEAD:    0.000000                  -0.3226905E-32
                               1ST/0TH ORDER REACTION:    0.000000                    0.000000    
                               MASS STOR (FLOW MODEL):    0.000000                    0.000000    
                                MASS STORAGE (SOLUTE):    1.642967                   -4.977919    
                                MASS STORAGE (SORBED):    3.504996                   -10.61956    
                            ---------------------------------------------------------------------------
                                              [TOTAL]:    17.75870     KG            -16.86489     KG  

                                                          NET (IN - OUT):   0.8938103    
                                                   DISCREPANCY (PERCENT):    5.163014    
     1 CALLS TO GCG PACKAGE FOR TRANSPORT TIME STEP     3 IN FLOW TIME STEP     1 STRESS PERIOD     2
      2 TOTAL ITERATIONS
     1 CALLS TO GCG PACKAGE FOR TRANSPORT TIME STEP     4 IN FLOW TIME STEP     1 STRESS PERIOD     2
      2 TOTAL ITERATIONS
     1 CALLS TO GCG PACKAGE FOR TRANSPORT TIME STEP     5 IN FLOW TIME STEP     1 STRESS PERIOD     2
      2 TOTAL ITERATIONS



 >>>>>>>>>>>>>>>>>>>>>>>>>>>>>>>>>>>>>>>>>>>>>>>>>>>>>>>FOR COMPONENT NO. 01<<<<<<<<<<<<<<<<<<<<<<<<<<<<<<<<<<<<<<<<<<<<<<<<<<<<<<<


                                            -------------------------------------------
                                                      TRANSPORT STEP NO.    5
                                            -------------------------------------------

 TOTAL ELAPSED TIME SINCE BEGINNING OF SIMULATION =   273.6000    S   
 .....................................................................

 TOTAL PARTICLES USED IN THE CURRENT STEP =      1150
 PARTICLES ADDED AT BEGINNING OF THE STEP =         0
 PARTICLES REMOVED AT END OF LAST STEP    =         0

                     CUMULATIVE MASS BUDGETS AT END OF TRANSPORT STEP    5, TIME STEP    1, STRESS PERIOD    2
                     -----------------------------------------------------------------------------------------

                                                             IN                           OUT
                                                      ----------------             ----------------
                               CONSTANT CONCENTRATION:    12.61073                   -1.773707    
                                        CONSTANT HEAD:    0.000000                  -0.4831266E-29
                               1ST/0TH ORDER REACTION:    0.000000                    0.000000    
                               MASS STOR (FLOW MODEL):    0.000000                    0.000000    
                                MASS STORAGE (SOLUTE):    3.023867                   -5.981544    
                                MASS STORAGE (SORBED):    6.450916                   -12.76063    
                            ---------------------------------------------------------------------------
                                              [TOTAL]:    22.08552     KG            -20.51588     KG  

                                                          NET (IN - OUT):    1.569639    
                                                   DISCREPANCY (PERCENT):    7.368957    
     1 CALLS TO GCG PACKAGE FOR TRANSPORT TIME STEP     6 IN FLOW TIME STEP     1 STRESS PERIOD     2
      2 TOTAL ITERATIONS
     1 CALLS TO GCG PACKAGE FOR TRANSPORT TIME STEP     7 IN FLOW TIME STEP     1 STRESS PERIOD     2
      2 TOTAL ITERATIONS
     1 CALLS TO GCG PACKAGE FOR TRANSPORT TIME STEP     8 IN FLOW TIME STEP     1 STRESS PERIOD     2
      2 TOTAL ITERATIONS



 >>>>>>>>>>>>>>>>>>>>>>>>>>>>>>>>>>>>>>>>>>>>>>>>>>>>>>>FOR COMPONENT NO. 01<<<<<<<<<<<<<<<<<<<<<<<<<<<<<<<<<<<<<<<<<<<<<<<<<<<<<<<


                                            -------------------------------------------
                                                      TRANSPORT STEP NO.    8
                                            -------------------------------------------

 TOTAL ELAPSED TIME SINCE BEGINNING OF SIMULATION =   364.8000    S   
 .....................................................................

 TOTAL PARTICLES USED IN THE CURRENT STEP =      1138
 PARTICLES ADDED AT BEGINNING OF THE STEP =        42
 PARTICLES REMOVED AT END OF LAST STEP    =        86

                     CUMULATIVE MASS BUDGETS AT END OF TRANSPORT STEP    8, TIME STEP    1, STRESS PERIOD    2
                     -----------------------------------------------------------------------------------------

                                                             IN                           OUT
                                                      ----------------             ----------------
                               CONSTANT CONCENTRATION:    12.61073                   -2.005674    
                                        CONSTANT HEAD:    0.000000                  -0.2698063E-26
                               1ST/0TH ORDER REACTION:    0.000000                    0.000000    
                               MASS STOR (FLOW MODEL):    0.000000                    0.000000    
                                MASS STORAGE (SOLUTE):    3.848990                   -6.727187    
                                MASS STORAGE (SORBED):    8.211178                   -14.35133    
                            ---------------------------------------------------------------------------
                                              [TOTAL]:    24.67090     KG            -23.08419     KG  

                                                          NET (IN - OUT):    1.586706    
                                                   DISCREPANCY (PERCENT):    6.645181    
     1 CALLS TO GCG PACKAGE FOR TRANSPORT TIME STEP     9 IN FLOW TIME STEP     1 STRESS PERIOD     2
      2 TOTAL ITERATIONS
     1 CALLS TO GCG PACKAGE FOR TRANSPORT TIME STEP    10 IN FLOW TIME STEP     1 STRESS PERIOD     2
      2 TOTAL ITERATIONS
     1 CALLS TO GCG PACKAGE FOR TRANSPORT TIME STEP    11 IN FLOW TIME STEP     1 STRESS PERIOD     2
      2 TOTAL ITERATIONS



 >>>>>>>>>>>>>>>>>>>>>>>>>>>>>>>>>>>>>>>>>>>>>>>>>>>>>>>FOR COMPONENT NO. 01<<<<<<<<<<<<<<<<<<<<<<<<<<<<<<<<<<<<<<<<<<<<<<<<<<<<<<<


                                            -------------------------------------------
                                                      TRANSPORT STEP NO.   11
                                            -------------------------------------------

 TOTAL ELAPSED TIME SINCE BEGINNING OF SIMULATION =   456.0000    S   
 .....................................................................

 TOTAL PARTICLES USED IN THE CURRENT STEP =      1170
 PARTICLES ADDED AT BEGINNING OF THE STEP =        32
 PARTICLES REMOVED AT END OF LAST STEP    =         0

                     CUMULATIVE MASS BUDGETS AT END OF TRANSPORT STEP   11, TIME STEP    1, STRESS PERIOD    2
                     -----------------------------------------------------------------------------------------

                                                             IN                           OUT
                                                      ----------------             ----------------
                               CONSTANT CONCENTRATION:    12.61073                   -2.109723    
                                        CONSTANT HEAD:    0.000000                  -0.6907714E-24
                               1ST/0TH ORDER REACTION:    0.000000                    0.000000    
                               MASS STOR (FLOW MODEL):    0.000000                    0.000000    
                                MASS STORAGE (SOLUTE):    4.508943                   -7.325629    
                                MASS STORAGE (SORBED):    9.619079                   -15.62801    
                            ---------------------------------------------------------------------------
                                              [TOTAL]:    26.73875     KG            -25.06336     KG  

                                                          NET (IN - OUT):    1.675392    
                                                   DISCREPANCY (PERCENT):    6.468431    
     1 CALLS TO GCG PACKAGE FOR TRANSPORT TIME STEP    12 IN FLOW TIME STEP     1 STRESS PERIOD     2
      2 TOTAL ITERATIONS
     1 CALLS TO GCG PACKAGE FOR TRANSPORT TIME STEP    13 IN FLOW TIME STEP     1 STRESS PERIOD     2
      2 TOTAL ITERATIONS
     1 CALLS TO GCG PACKAGE FOR TRANSPORT TIME STEP    14 IN FLOW TIME STEP     1 STRESS PERIOD     2
      2 TOTAL ITERATIONS



 >>>>>>>>>>>>>>>>>>>>>>>>>>>>>>>>>>>>>>>>>>>>>>>>>>>>>>>FOR COMPONENT NO. 01<<<<<<<<<<<<<<<<<<<<<<<<<<<<<<<<<<<<<<<<<<<<<<<<<<<<<<<


                                            -------------------------------------------
                                                      TRANSPORT STEP NO.   14
                                            -------------------------------------------

 TOTAL ELAPSED TIME SINCE BEGINNING OF SIMULATION =   547.2000    S   
 .....................................................................

 TOTAL PARTICLES USED IN THE CURRENT STEP =      1234
 PARTICLES ADDED AT BEGINNING OF THE STEP =        32
 PARTICLES REMOVED AT END OF LAST STEP    =         0

                     CUMULATIVE MASS BUDGETS AT END OF TRANSPORT STEP   14, TIME STEP    1, STRESS PERIOD    2
                     -----------------------------------------------------------------------------------------

                                                             IN                           OUT
                                                      ----------------             ----------------
                               CONSTANT CONCENTRATION:    12.61073                   -2.153868    
                                        CONSTANT HEAD:    0.000000                  -0.9813942E-22
                               1ST/0TH ORDER REACTION:    0.000000                    0.000000    
                               MASS STOR (FLOW MODEL):    0.000000                    0.000000    
                                MASS STORAGE (SOLUTE):    4.950707                   -7.846561    
                                MASS STORAGE (SORBED):    10.56151                   -16.73933    
                            ---------------------------------------------------------------------------
                                              [TOTAL]:    28.12295     KG            -26.73976     KG  

                                                          NET (IN - OUT):    1.383188    
                                                   DISCREPANCY (PERCENT):    5.042362    
     1 CALLS TO GCG PACKAGE FOR TRANSPORT TIME STEP    15 IN FLOW TIME STEP     1 STRESS PERIOD     2
      2 TOTAL ITERATIONS
     1 CALLS TO GCG PACKAGE FOR TRANSPORT TIME STEP    16 IN FLOW TIME STEP     1 STRESS PERIOD     2
      2 TOTAL ITERATIONS
     1 CALLS TO GCG PACKAGE FOR TRANSPORT TIME STEP    17 IN FLOW TIME STEP     1 STRESS PERIOD     2
      2 TOTAL ITERATIONS



 >>>>>>>>>>>>>>>>>>>>>>>>>>>>>>>>>>>>>>>>>>>>>>>>>>>>>>>FOR COMPONENT NO. 01<<<<<<<<<<<<<<<<<<<<<<<<<<<<<<<<<<<<<<<<<<<<<<<<<<<<<<<


                                            -------------------------------------------
                                                      TRANSPORT STEP NO.   17
                                            -------------------------------------------

 TOTAL ELAPSED TIME SINCE BEGINNING OF SIMULATION =   638.4000    S   
 .....................................................................

 TOTAL PARTICLES USED IN THE CURRENT STEP =      1298
 PARTICLES ADDED AT BEGINNING OF THE STEP =         0
 PARTICLES REMOVED AT END OF LAST STEP    =         0

                     CUMULATIVE MASS BUDGETS AT END OF TRANSPORT STEP   17, TIME STEP    1, STRESS PERIOD    2
                     -----------------------------------------------------------------------------------------

                                                             IN                           OUT
                                                      ----------------             ----------------
                               CONSTANT CONCENTRATION:    12.61073                   -2.180633    
                                        CONSTANT HEAD:    0.000000                  -0.9833757E-20
                               1ST/0TH ORDER REACTION:    0.000000                    0.000000    
                               MASS STOR (FLOW MODEL):    0.000000                    0.000000    
                                MASS STORAGE (SOLUTE):    5.426947                   -8.399920    
                                MASS STORAGE (SORBED):    11.57749                   -17.91983    
                            ---------------------------------------------------------------------------
                                              [TOTAL]:    29.61517     KG            -28.50038     KG  

                                                          NET (IN - OUT):    1.114784    
                                                   DISCREPANCY (PERCENT):    3.836441    
     1 CALLS TO GCG PACKAGE FOR TRANSPORT TIME STEP    18 IN FLOW TIME STEP     1 STRESS PERIOD     2
      2 TOTAL ITERATIONS
     1 CALLS TO GCG PACKAGE FOR TRANSPORT TIME STEP    19 IN FLOW TIME STEP     1 STRESS PERIOD     2
      2 TOTAL ITERATIONS
     1 CALLS TO GCG PACKAGE FOR TRANSPORT TIME STEP    20 IN FLOW TIME STEP     1 STRESS PERIOD     2
      2 TOTAL ITERATIONS



 >>>>>>>>>>>>>>>>>>>>>>>>>>>>>>>>>>>>>>>>>>>>>>>>>>>>>>>FOR COMPONENT NO. 01<<<<<<<<<<<<<<<<<<<<<<<<<<<<<<<<<<<<<<<<<<<<<<<<<<<<<<<


                                            -------------------------------------------
                                                      TRANSPORT STEP NO.   20
                                            -------------------------------------------

 TOTAL ELAPSED TIME SINCE BEGINNING OF SIMULATION =   729.6000    S   
 .....................................................................

 TOTAL PARTICLES USED IN THE CURRENT STEP =      1288
 PARTICLES ADDED AT BEGINNING OF THE STEP =        32
 PARTICLES REMOVED AT END OF LAST STEP    =         0

                     CUMULATIVE MASS BUDGETS AT END OF TRANSPORT STEP   20, TIME STEP    1, STRESS PERIOD    2
                     -----------------------------------------------------------------------------------------

                                                             IN                           OUT
                                                      ----------------             ----------------
                               CONSTANT CONCENTRATION:    12.61073                   -2.198301    
                                        CONSTANT HEAD:    0.000000                  -0.6442644E-18
                               1ST/0TH ORDER REACTION:    0.000000                    0.000000    
                               MASS STOR (FLOW MODEL):    0.000000                    0.000000    
                                MASS STORAGE (SOLUTE):    5.871509                   -8.836206    
                                MASS STORAGE (SORBED):    12.52589                   -18.85057    
                            ---------------------------------------------------------------------------
                                              [TOTAL]:    31.00813     KG            -29.88508     KG  

                                                          NET (IN - OUT):    1.123049    
                                                   DISCREPANCY (PERCENT):    3.688585    
     1 CALLS TO GCG PACKAGE FOR TRANSPORT TIME STEP    21 IN FLOW TIME STEP     1 STRESS PERIOD     2
      2 TOTAL ITERATIONS
     1 CALLS TO GCG PACKAGE FOR TRANSPORT TIME STEP    22 IN FLOW TIME STEP     1 STRESS PERIOD     2
      2 TOTAL ITERATIONS
     1 CALLS TO GCG PACKAGE FOR TRANSPORT TIME STEP    23 IN FLOW TIME STEP     1 STRESS PERIOD     2
      2 TOTAL ITERATIONS



 >>>>>>>>>>>>>>>>>>>>>>>>>>>>>>>>>>>>>>>>>>>>>>>>>>>>>>>FOR COMPONENT NO. 01<<<<<<<<<<<<<<<<<<<<<<<<<<<<<<<<<<<<<<<<<<<<<<<<<<<<<<<


                                            -------------------------------------------
                                                      TRANSPORT STEP NO.   23
                                            -------------------------------------------

 TOTAL ELAPSED TIME SINCE BEGINNING OF SIMULATION =   820.8000    S   
 .....................................................................

 TOTAL PARTICLES USED IN THE CURRENT STEP =      1320
 PARTICLES ADDED AT BEGINNING OF THE STEP =        32
 PARTICLES REMOVED AT END OF LAST STEP    =         0

                     CUMULATIVE MASS BUDGETS AT END OF TRANSPORT STEP   23, TIME STEP    1, STRESS PERIOD    2
                     -----------------------------------------------------------------------------------------

                                                             IN                           OUT
                                                      ----------------             ----------------
                               CONSTANT CONCENTRATION:    12.61073                   -2.208932    
                                        CONSTANT HEAD:    0.000000                  -0.2466233E-16
                               1ST/0TH ORDER REACTION:    0.000000                    0.000000    
                               MASS STOR (FLOW MODEL):    0.000000                    0.000000    
                                MASS STORAGE (SOLUTE):    6.285959                   -9.238842    
                                MASS STORAGE (SORBED):    13.41005                   -19.70953    
                            ---------------------------------------------------------------------------
                                              [TOTAL]:    32.30674     KG            -31.15730     KG  

                                                          NET (IN - OUT):    1.149437    
                                                   DISCREPANCY (PERCENT):    3.622325    
     1 CALLS TO GCG PACKAGE FOR TRANSPORT TIME STEP    24 IN FLOW TIME STEP     1 STRESS PERIOD     2
      2 TOTAL ITERATIONS
     1 CALLS TO GCG PACKAGE FOR TRANSPORT TIME STEP    25 IN FLOW TIME STEP     1 STRESS PERIOD     2
      2 TOTAL ITERATIONS
     1 CALLS TO GCG PACKAGE FOR TRANSPORT TIME STEP    26 IN FLOW TIME STEP     1 STRESS PERIOD     2
      2 TOTAL ITERATIONS



 >>>>>>>>>>>>>>>>>>>>>>>>>>>>>>>>>>>>>>>>>>>>>>>>>>>>>>>FOR COMPONENT NO. 01<<<<<<<<<<<<<<<<<<<<<<<<<<<<<<<<<<<<<<<<<<<<<<<<<<<<<<<


                                            -------------------------------------------
                                                      TRANSPORT STEP NO.   26
                                            -------------------------------------------

 TOTAL ELAPSED TIME SINCE BEGINNING OF SIMULATION =   912.0000    S   
 .....................................................................

 TOTAL PARTICLES USED IN THE CURRENT STEP =      1352
 PARTICLES ADDED AT BEGINNING OF THE STEP =         0
 PARTICLES REMOVED AT END OF LAST STEP    =         0

                     CUMULATIVE MASS BUDGETS AT END OF TRANSPORT STEP   26, TIME STEP    1, STRESS PERIOD    2
                     -----------------------------------------------------------------------------------------

                                                             IN                           OUT
                                                      ----------------             ----------------
                               CONSTANT CONCENTRATION:    12.61073                   -2.214316    
                                        CONSTANT HEAD:    0.000000                  -0.6882205E-15
                               1ST/0TH ORDER REACTION:    0.000000                    0.000000    
                               MASS STOR (FLOW MODEL):    0.000000                    0.000000    
                                MASS STORAGE (SOLUTE):    6.698507                   -9.616241    
                                MASS STORAGE (SORBED):    14.29015                   -20.51465    
                            ---------------------------------------------------------------------------
                                              [TOTAL]:    33.59939     KG            -32.34520     KG  

                                                          NET (IN - OUT):    1.254185    
                                                   DISCREPANCY (PERCENT):    3.803753    
     1 CALLS TO GCG PACKAGE FOR TRANSPORT TIME STEP    27 IN FLOW TIME STEP     1 STRESS PERIOD     2
      2 TOTAL ITERATIONS
     1 CALLS TO GCG PACKAGE FOR TRANSPORT TIME STEP    28 IN FLOW TIME STEP     1 STRESS PERIOD     2
      2 TOTAL ITERATIONS
     1 CALLS TO GCG PACKAGE FOR TRANSPORT TIME STEP    29 IN FLOW TIME STEP     1 STRESS PERIOD     2
      2 TOTAL ITERATIONS



 >>>>>>>>>>>>>>>>>>>>>>>>>>>>>>>>>>>>>>>>>>>>>>>>>>>>>>>FOR COMPONENT NO. 01<<<<<<<<<<<<<<<<<<<<<<<<<<<<<<<<<<<<<<<<<<<<<<<<<<<<<<<


                                            -------------------------------------------
                                                      TRANSPORT STEP NO.   29
                                            -------------------------------------------

 TOTAL ELAPSED TIME SINCE BEGINNING OF SIMULATION =   1003.200    S   
 .....................................................................

 TOTAL PARTICLES USED IN THE CURRENT STEP =      1416
 PARTICLES ADDED AT BEGINNING OF THE STEP =         0
 PARTICLES REMOVED AT END OF LAST STEP    =         0

                     CUMULATIVE MASS BUDGETS AT END OF TRANSPORT STEP   29, TIME STEP    1, STRESS PERIOD    2
                     -----------------------------------------------------------------------------------------

                                                             IN                           OUT
                                                      ----------------             ----------------
                               CONSTANT CONCENTRATION:    12.61073                   -2.217851    
                                        CONSTANT HEAD:    0.000000                  -0.1451377E-13
                               1ST/0TH ORDER REACTION:    0.000000                    0.000000    
                               MASS STOR (FLOW MODEL):    0.000000                    0.000000    
                                MASS STORAGE (SOLUTE):    7.060153                   -9.958888    
                                MASS STORAGE (SORBED):    15.06166                   -21.24563    
                            ---------------------------------------------------------------------------
                                              [TOTAL]:    34.73255     KG            -33.42237     KG  

                                                          NET (IN - OUT):    1.310184    
                                                   DISCREPANCY (PERCENT):    3.844724    
     1 CALLS TO GCG PACKAGE FOR TRANSPORT TIME STEP    30 IN FLOW TIME STEP     1 STRESS PERIOD     2
      2 TOTAL ITERATIONS
     1 CALLS TO GCG PACKAGE FOR TRANSPORT TIME STEP    31 IN FLOW TIME STEP     1 STRESS PERIOD     2
      2 TOTAL ITERATIONS
     1 CALLS TO GCG PACKAGE FOR TRANSPORT TIME STEP    32 IN FLOW TIME STEP     1 STRESS PERIOD     2
      2 TOTAL ITERATIONS



 >>>>>>>>>>>>>>>>>>>>>>>>>>>>>>>>>>>>>>>>>>>>>>>>>>>>>>>FOR COMPONENT NO. 01<<<<<<<<<<<<<<<<<<<<<<<<<<<<<<<<<<<<<<<<<<<<<<<<<<<<<<<


                                            -------------------------------------------
                                                      TRANSPORT STEP NO.   32
                                            -------------------------------------------

 TOTAL ELAPSED TIME SINCE BEGINNING OF SIMULATION =   1094.400    S   
 .....................................................................

 TOTAL PARTICLES USED IN THE CURRENT STEP =      1406
 PARTICLES ADDED AT BEGINNING OF THE STEP =        32
 PARTICLES REMOVED AT END OF LAST STEP    =         0

                     CUMULATIVE MASS BUDGETS AT END OF TRANSPORT STEP   32, TIME STEP    1, STRESS PERIOD    2
                     -----------------------------------------------------------------------------------------

                                                             IN                           OUT
                                                      ----------------             ----------------
                               CONSTANT CONCENTRATION:    12.61073                   -2.220349    
                                        CONSTANT HEAD:    0.000000                  -0.2447588E-12
                               1ST/0TH ORDER REACTION:    0.000000                    0.000000    
                               MASS STOR (FLOW MODEL):    0.000000                    0.000000    
                                MASS STORAGE (SOLUTE):    7.408186                   -10.28357    
                                MASS STORAGE (SORBED):    15.80413                   -21.93827    
                            ---------------------------------------------------------------------------
                                              [TOTAL]:    35.82305     KG            -34.44219     KG  

                                                          NET (IN - OUT):    1.380859    
                                                   DISCREPANCY (PERCENT):    3.930419    
     1 CALLS TO GCG PACKAGE FOR TRANSPORT TIME STEP    33 IN FLOW TIME STEP     1 STRESS PERIOD     2
      2 TOTAL ITERATIONS
     1 CALLS TO GCG PACKAGE FOR TRANSPORT TIME STEP    34 IN FLOW TIME STEP     1 STRESS PERIOD     2
      2 TOTAL ITERATIONS
     1 CALLS TO GCG PACKAGE FOR TRANSPORT TIME STEP    35 IN FLOW TIME STEP     1 STRESS PERIOD     2
      2 TOTAL ITERATIONS



 >>>>>>>>>>>>>>>>>>>>>>>>>>>>>>>>>>>>>>>>>>>>>>>>>>>>>>>FOR COMPONENT NO. 01<<<<<<<<<<<<<<<<<<<<<<<<<<<<<<<<<<<<<<<<<<<<<<<<<<<<<<<


                                            -------------------------------------------
                                                      TRANSPORT STEP NO.   35
                                            -------------------------------------------

 TOTAL ELAPSED TIME SINCE BEGINNING OF SIMULATION =   1185.600    S   
 .....................................................................

 TOTAL PARTICLES USED IN THE CURRENT STEP =      1438
 PARTICLES ADDED AT BEGINNING OF THE STEP =        32
 PARTICLES REMOVED AT END OF LAST STEP    =         0

                     CUMULATIVE MASS BUDGETS AT END OF TRANSPORT STEP   35, TIME STEP    1, STRESS PERIOD    2
                     -----------------------------------------------------------------------------------------

                                                             IN                           OUT
                                                      ----------------             ----------------
                               CONSTANT CONCENTRATION:    12.61073                   -2.221959    
                                        CONSTANT HEAD:    0.000000                  -0.3159557E-11
                               1ST/0TH ORDER REACTION:    0.000000                    0.000000    
                               MASS STOR (FLOW MODEL):    0.000000                    0.000000    
                                MASS STORAGE (SOLUTE):    7.719478                   -10.60090    
                                MASS STORAGE (SORBED):    16.46822                   -22.61525    
                            ---------------------------------------------------------------------------
                                              [TOTAL]:    36.79843     KG            -35.43811     KG  

                                                          NET (IN - OUT):    1.360321    
                                                   DISCREPANCY (PERCENT):    3.766296    
     1 CALLS TO GCG PACKAGE FOR TRANSPORT TIME STEP    36 IN FLOW TIME STEP     1 STRESS PERIOD     2
      2 TOTAL ITERATIONS
     1 CALLS TO GCG PACKAGE FOR TRANSPORT TIME STEP    37 IN FLOW TIME STEP     1 STRESS PERIOD     2
      2 TOTAL ITERATIONS
     1 CALLS TO GCG PACKAGE FOR TRANSPORT TIME STEP    38 IN FLOW TIME STEP     1 STRESS PERIOD     2
      2 TOTAL ITERATIONS



 >>>>>>>>>>>>>>>>>>>>>>>>>>>>>>>>>>>>>>>>>>>>>>>>>>>>>>>FOR COMPONENT NO. 01<<<<<<<<<<<<<<<<<<<<<<<<<<<<<<<<<<<<<<<<<<<<<<<<<<<<<<<


                                            -------------------------------------------
                                                      TRANSPORT STEP NO.   38
                                            -------------------------------------------

 TOTAL ELAPSED TIME SINCE BEGINNING OF SIMULATION =   1276.800    S   
 .....................................................................

 TOTAL PARTICLES USED IN THE CURRENT STEP =      1470
 PARTICLES ADDED AT BEGINNING OF THE STEP =         0
 PARTICLES REMOVED AT END OF LAST STEP    =         0

                     CUMULATIVE MASS BUDGETS AT END OF TRANSPORT STEP   38, TIME STEP    1, STRESS PERIOD    2
                     -----------------------------------------------------------------------------------------

                                                             IN                           OUT
                                                      ----------------             ----------------
                               CONSTANT CONCENTRATION:    12.61073                   -2.222822    
                                        CONSTANT HEAD:    0.000000                  -0.3437699E-10
                               1ST/0TH ORDER REACTION:    0.000000                    0.000000    
                               MASS STOR (FLOW MODEL):    0.000000                    0.000000    
                                MASS STORAGE (SOLUTE):    8.012953                   -10.91883    
                                MASS STORAGE (SORBED):    17.09430                   -23.29350    
                            ---------------------------------------------------------------------------
                                              [TOTAL]:    37.71799     KG            -36.43514     KG  

                                                          NET (IN - OUT):    1.282845    
                                                   DISCREPANCY (PERCENT):    3.459988    
     1 CALLS TO GCG PACKAGE FOR TRANSPORT TIME STEP    39 IN FLOW TIME STEP     1 STRESS PERIOD     2
      2 TOTAL ITERATIONS
     1 CALLS TO GCG PACKAGE FOR TRANSPORT TIME STEP    40 IN FLOW TIME STEP     1 STRESS PERIOD     2
      2 TOTAL ITERATIONS
     1 CALLS TO GCG PACKAGE FOR TRANSPORT TIME STEP    41 IN FLOW TIME STEP     1 STRESS PERIOD     2
      2 TOTAL ITERATIONS



 >>>>>>>>>>>>>>>>>>>>>>>>>>>>>>>>>>>>>>>>>>>>>>>>>>>>>>>FOR COMPONENT NO. 01<<<<<<<<<<<<<<<<<<<<<<<<<<<<<<<<<<<<<<<<<<<<<<<<<<<<<<<


                                            -------------------------------------------
                                                      TRANSPORT STEP NO.   41
                                            -------------------------------------------

 TOTAL ELAPSED TIME SINCE BEGINNING OF SIMULATION =   1368.000    S   
 .....................................................................

 TOTAL PARTICLES USED IN THE CURRENT STEP =      1458
 PARTICLES ADDED AT BEGINNING OF THE STEP =        10
 PARTICLES REMOVED AT END OF LAST STEP    =        86

                     CUMULATIVE MASS BUDGETS AT END OF TRANSPORT STEP   41, TIME STEP    1, STRESS PERIOD    2
                     -----------------------------------------------------------------------------------------

                                                             IN                           OUT
                                                      ----------------             ----------------
                               CONSTANT CONCENTRATION:    12.61073                   -2.223412    
                                        CONSTANT HEAD:    0.000000                  -0.3245164E-09
                               1ST/0TH ORDER REACTION:    0.000000                    0.000000    
                               MASS STOR (FLOW MODEL):    0.000000                    0.000000    
                                MASS STORAGE (SOLUTE):    8.312086                   -11.21435    
                                MASS STORAGE (SORBED):    17.73245                   -23.92393    
                            ---------------------------------------------------------------------------
                                              [TOTAL]:    38.65527     KG            -37.36169     KG  

                                                          NET (IN - OUT):    1.293575    
                                                   DISCREPANCY (PERCENT):    3.403386    
     1 CALLS TO GCG PACKAGE FOR TRANSPORT TIME STEP    42 IN FLOW TIME STEP     1 STRESS PERIOD     2
      2 TOTAL ITERATIONS
     1 CALLS TO GCG PACKAGE FOR TRANSPORT TIME STEP    43 IN FLOW TIME STEP     1 STRESS PERIOD     2
      2 TOTAL ITERATIONS
     1 CALLS TO GCG PACKAGE FOR TRANSPORT TIME STEP    44 IN FLOW TIME STEP     1 STRESS PERIOD     2
      2 TOTAL ITERATIONS



 >>>>>>>>>>>>>>>>>>>>>>>>>>>>>>>>>>>>>>>>>>>>>>>>>>>>>>>FOR COMPONENT NO. 01<<<<<<<<<<<<<<<<<<<<<<<<<<<<<<<<<<<<<<<<<<<<<<<<<<<<<<<


                                            -------------------------------------------
                                                      TRANSPORT STEP NO.   44
                                            -------------------------------------------

 TOTAL ELAPSED TIME SINCE BEGINNING OF SIMULATION =   1459.200    S   
 .....................................................................

 TOTAL PARTICLES USED IN THE CURRENT STEP =      1522
 PARTICLES ADDED AT BEGINNING OF THE STEP =        32
 PARTICLES REMOVED AT END OF LAST STEP    =         0

                     CUMULATIVE MASS BUDGETS AT END OF TRANSPORT STEP   44, TIME STEP    1, STRESS PERIOD    2
                     -----------------------------------------------------------------------------------------

                                                             IN                           OUT
                                                      ----------------             ----------------
                               CONSTANT CONCENTRATION:    12.61073                   -2.223845    
                                        CONSTANT HEAD:    0.000000                  -0.2444560E-08
                               1ST/0TH ORDER REACTION:    0.000000                    0.000000    
                               MASS STOR (FLOW MODEL):    0.000000                    0.000000    
                                MASS STORAGE (SOLUTE):    8.602525                   -11.49844    
                                MASS STORAGE (SORBED):    18.35205                   -24.53000    
                            ---------------------------------------------------------------------------
                                              [TOTAL]:    39.56531     KG            -38.25228     KG  

                                                          NET (IN - OUT):    1.313030    
                                                   DISCREPANCY (PERCENT):    3.374636    
     1 CALLS TO GCG PACKAGE FOR TRANSPORT TIME STEP    45 IN FLOW TIME STEP     1 STRESS PERIOD     2
      2 TOTAL ITERATIONS
     1 CALLS TO GCG PACKAGE FOR TRANSPORT TIME STEP    46 IN FLOW TIME STEP     1 STRESS PERIOD     2
      2 TOTAL ITERATIONS
     1 CALLS TO GCG PACKAGE FOR TRANSPORT TIME STEP    47 IN FLOW TIME STEP     1 STRESS PERIOD     2
      2 TOTAL ITERATIONS



 >>>>>>>>>>>>>>>>>>>>>>>>>>>>>>>>>>>>>>>>>>>>>>>>>>>>>>>FOR COMPONENT NO. 01<<<<<<<<<<<<<<<<<<<<<<<<<<<<<<<<<<<<<<<<<<<<<<<<<<<<<<<


                                            -------------------------------------------
                                                      TRANSPORT STEP NO.   47
                                            -------------------------------------------

 TOTAL ELAPSED TIME SINCE BEGINNING OF SIMULATION =   1550.400    S   
 .....................................................................

 TOTAL PARTICLES USED IN THE CURRENT STEP =      1554
 PARTICLES ADDED AT BEGINNING OF THE STEP =        32
 PARTICLES REMOVED AT END OF LAST STEP    =         0

                     CUMULATIVE MASS BUDGETS AT END OF TRANSPORT STEP   47, TIME STEP    1, STRESS PERIOD    2
                     -----------------------------------------------------------------------------------------

                                                             IN                           OUT
                                                      ----------------             ----------------
                               CONSTANT CONCENTRATION:    12.61073                   -2.224135    
                                        CONSTANT HEAD:    0.000000                  -0.1531084E-07
                               1ST/0TH ORDER REACTION:    0.000000                    0.000000    
                               MASS STOR (FLOW MODEL):    0.000000                    0.000000    
                                MASS STORAGE (SOLUTE):    8.908106                   -11.78271    
                                MASS STORAGE (SORBED):    19.00396                   -25.13644    
                            ---------------------------------------------------------------------------
                                              [TOTAL]:    40.52280     KG            -39.14328     KG  

                                                          NET (IN - OUT):    1.379513    
                                                   DISCREPANCY (PERCENT):    3.463238    
     1 CALLS TO GCG PACKAGE FOR TRANSPORT TIME STEP    48 IN FLOW TIME STEP     1 STRESS PERIOD     2
      2 TOTAL ITERATIONS
     1 CALLS TO GCG PACKAGE FOR TRANSPORT TIME STEP    49 IN FLOW TIME STEP     1 STRESS PERIOD     2
      2 TOTAL ITERATIONS
     1 CALLS TO GCG PACKAGE FOR TRANSPORT TIME STEP    50 IN FLOW TIME STEP     1 STRESS PERIOD     2
      2 TOTAL ITERATIONS



 >>>>>>>>>>>>>>>>>>>>>>>>>>>>>>>>>>>>>>>>>>>>>>>>>>>>>>>FOR COMPONENT NO. 01<<<<<<<<<<<<<<<<<<<<<<<<<<<<<<<<<<<<<<<<<<<<<<<<<<<<<<<


                                            -------------------------------------------
                                                      TRANSPORT STEP NO.   50
                                            -------------------------------------------

 TOTAL ELAPSED TIME SINCE BEGINNING OF SIMULATION =   1641.600    S   
 .....................................................................

 TOTAL PARTICLES USED IN THE CURRENT STEP =      1586
 PARTICLES ADDED AT BEGINNING OF THE STEP =         0
 PARTICLES REMOVED AT END OF LAST STEP    =         0

                     CUMULATIVE MASS BUDGETS AT END OF TRANSPORT STEP   50, TIME STEP    1, STRESS PERIOD    2
                     -----------------------------------------------------------------------------------------

                                                             IN                           OUT
                                                      ----------------             ----------------
                               CONSTANT CONCENTRATION:    12.61073                   -2.224296    
                                        CONSTANT HEAD:    0.000000                  -0.8309129E-07
                               1ST/0TH ORDER REACTION:    0.000000                    0.000000    
                               MASS STOR (FLOW MODEL):    0.000000                    0.000000    
                                MASS STORAGE (SOLUTE):    9.193646                   -12.05443    
                                MASS STORAGE (SORBED):    19.61311                   -25.71612    
                            ---------------------------------------------------------------------------
                                              [TOTAL]:    41.41749     KG            -39.99485     KG  

                                                          NET (IN - OUT):    1.422642    
                                                   DISCREPANCY (PERCENT):    3.494905    
     1 CALLS TO GCG PACKAGE FOR TRANSPORT TIME STEP    51 IN FLOW TIME STEP     1 STRESS PERIOD     2
      2 TOTAL ITERATIONS
     1 CALLS TO GCG PACKAGE FOR TRANSPORT TIME STEP    52 IN FLOW TIME STEP     1 STRESS PERIOD     2
      2 TOTAL ITERATIONS
     1 CALLS TO GCG PACKAGE FOR TRANSPORT TIME STEP    53 IN FLOW TIME STEP     1 STRESS PERIOD     2
      2 TOTAL ITERATIONS



 >>>>>>>>>>>>>>>>>>>>>>>>>>>>>>>>>>>>>>>>>>>>>>>>>>>>>>>FOR COMPONENT NO. 01<<<<<<<<<<<<<<<<<<<<<<<<<<<<<<<<<<<<<<<<<<<<<<<<<<<<<<<


                                            -------------------------------------------
                                                      TRANSPORT STEP NO.   53
                                            -------------------------------------------

 TOTAL ELAPSED TIME SINCE BEGINNING OF SIMULATION =   1732.800    S   
 .....................................................................

 TOTAL PARTICLES USED IN THE CURRENT STEP =      1576
 PARTICLES ADDED AT BEGINNING OF THE STEP =         0
 PARTICLES REMOVED AT END OF LAST STEP    =         0

                     CUMULATIVE MASS BUDGETS AT END OF TRANSPORT STEP   53, TIME STEP    1, STRESS PERIOD    2
                     -----------------------------------------------------------------------------------------

                                                             IN                           OUT
                                                      ----------------             ----------------
                               CONSTANT CONCENTRATION:    12.61073                   -2.224408    
                                        CONSTANT HEAD:    0.000000                  -0.4041565E-06
                               1ST/0TH ORDER REACTION:    0.000000                    0.000000    
                               MASS STOR (FLOW MODEL):    0.000000                    0.000000    
                                MASS STORAGE (SOLUTE):    9.449625                   -12.30982    
                                MASS STORAGE (SORBED):    20.15919                   -26.26094    
                            ---------------------------------------------------------------------------
                                              [TOTAL]:    42.21955     KG            -40.79517     KG  

                                                          NET (IN - OUT):    1.424381    
                                                   DISCREPANCY (PERCENT):    3.431635    
     1 CALLS TO GCG PACKAGE FOR TRANSPORT TIME STEP    54 IN FLOW TIME STEP     1 STRESS PERIOD     2
      2 TOTAL ITERATIONS
     1 CALLS TO GCG PACKAGE FOR TRANSPORT TIME STEP    55 IN FLOW TIME STEP     1 STRESS PERIOD     2
      2 TOTAL ITERATIONS
     1 CALLS TO GCG PACKAGE FOR TRANSPORT TIME STEP    56 IN FLOW TIME STEP     1 STRESS PERIOD     2
      2 TOTAL ITERATIONS



 >>>>>>>>>>>>>>>>>>>>>>>>>>>>>>>>>>>>>>>>>>>>>>>>>>>>>>>FOR COMPONENT NO. 01<<<<<<<<<<<<<<<<<<<<<<<<<<<<<<<<<<<<<<<<<<<<<<<<<<<<<<<


                                            -------------------------------------------
                                                      TRANSPORT STEP NO.   56
                                            -------------------------------------------

 TOTAL ELAPSED TIME SINCE BEGINNING OF SIMULATION =   1824.000    S   
 .....................................................................

 TOTAL PARTICLES USED IN THE CURRENT STEP =      1640
 PARTICLES ADDED AT BEGINNING OF THE STEP =        32
 PARTICLES REMOVED AT END OF LAST STEP    =         0

                     CUMULATIVE MASS BUDGETS AT END OF TRANSPORT STEP   56, TIME STEP    1, STRESS PERIOD    2
                     -----------------------------------------------------------------------------------------

                                                             IN                           OUT
                                                      ----------------             ----------------
                               CONSTANT CONCENTRATION:    12.61073                   -2.224493    
                                        CONSTANT HEAD:    0.000000                  -0.1709332E-05
                               1ST/0TH ORDER REACTION:    0.000000                    0.000000    
                               MASS STOR (FLOW MODEL):    0.000000                    0.000000    
                                MASS STORAGE (SOLUTE):    9.703179                   -12.55752    
                                MASS STORAGE (SORBED):    20.70011                   -26.78938    
                            ---------------------------------------------------------------------------
                                              [TOTAL]:    43.01402     KG            -41.57139     KG  

                                                          NET (IN - OUT):    1.442635    
                                                   DISCREPANCY (PERCENT):    3.411072    
     1 CALLS TO GCG PACKAGE FOR TRANSPORT TIME STEP    57 IN FLOW TIME STEP     1 STRESS PERIOD     2
      2 TOTAL ITERATIONS
     1 CALLS TO GCG PACKAGE FOR TRANSPORT TIME STEP    58 IN FLOW TIME STEP     1 STRESS PERIOD     2
      2 TOTAL ITERATIONS
     1 CALLS TO GCG PACKAGE FOR TRANSPORT TIME STEP    59 IN FLOW TIME STEP     1 STRESS PERIOD     2
      2 TOTAL ITERATIONS



 >>>>>>>>>>>>>>>>>>>>>>>>>>>>>>>>>>>>>>>>>>>>>>>>>>>>>>>FOR COMPONENT NO. 01<<<<<<<<<<<<<<<<<<<<<<<<<<<<<<<<<<<<<<<<<<<<<<<<<<<<<<<


                                            -------------------------------------------
                                                      TRANSPORT STEP NO.   59
                                            -------------------------------------------

 TOTAL ELAPSED TIME SINCE BEGINNING OF SIMULATION =   1915.200    S   
 .....................................................................

 TOTAL PARTICLES USED IN THE CURRENT STEP =      1672
 PARTICLES ADDED AT BEGINNING OF THE STEP =        32
 PARTICLES REMOVED AT END OF LAST STEP    =         0

                     CUMULATIVE MASS BUDGETS AT END OF TRANSPORT STEP   59, TIME STEP    1, STRESS PERIOD    2
                     -----------------------------------------------------------------------------------------

                                                             IN                           OUT
                                                      ----------------             ----------------
                               CONSTANT CONCENTRATION:    12.61073                   -2.224551    
                                        CONSTANT HEAD:    0.000000                  -0.6546494E-05
                               1ST/0TH ORDER REACTION:    0.000000                    0.000000    
                               MASS STOR (FLOW MODEL):    0.000000                    0.000000    
                                MASS STORAGE (SOLUTE):    9.936615                   -12.84408    
                                MASS STORAGE (SORBED):    21.19811                   -27.40070    
                            ---------------------------------------------------------------------------
                                              [TOTAL]:    43.74546     KG            -42.46933     KG  

                                                          NET (IN - OUT):    1.276123    
                                                   DISCREPANCY (PERCENT):    2.960334    
     1 CALLS TO GCG PACKAGE FOR TRANSPORT TIME STEP    60 IN FLOW TIME STEP     1 STRESS PERIOD     2
      2 TOTAL ITERATIONS
     1 CALLS TO GCG PACKAGE FOR TRANSPORT TIME STEP    61 IN FLOW TIME STEP     1 STRESS PERIOD     2
      2 TOTAL ITERATIONS
     1 CALLS TO GCG PACKAGE FOR TRANSPORT TIME STEP    62 IN FLOW TIME STEP     1 STRESS PERIOD     2
      2 TOTAL ITERATIONS



 >>>>>>>>>>>>>>>>>>>>>>>>>>>>>>>>>>>>>>>>>>>>>>>>>>>>>>>FOR COMPONENT NO. 01<<<<<<<<<<<<<<<<<<<<<<<<<<<<<<<<<<<<<<<<<<<<<<<<<<<<<<<


                                            -------------------------------------------
                                                      TRANSPORT STEP NO.   62
                                            -------------------------------------------

 TOTAL ELAPSED TIME SINCE BEGINNING OF SIMULATION =   2006.400    S   
 .....................................................................

 TOTAL PARTICLES USED IN THE CURRENT STEP =      1704
 PARTICLES ADDED AT BEGINNING OF THE STEP =         0
 PARTICLES REMOVED AT END OF LAST STEP    =         0

                     CUMULATIVE MASS BUDGETS AT END OF TRANSPORT STEP   62, TIME STEP    1, STRESS PERIOD    2
                     -----------------------------------------------------------------------------------------

                                                             IN                           OUT
                                                      ----------------             ----------------
                               CONSTANT CONCENTRATION:    12.61073                   -2.224583    
                                        CONSTANT HEAD:    0.000000                  -0.2346582E-04
                               1ST/0TH ORDER REACTION:    0.000000                    0.000000    
                               MASS STOR (FLOW MODEL):    0.000000                    0.000000    
                                MASS STORAGE (SOLUTE):    10.18259                   -13.08171    
                                MASS STORAGE (SORBED):    21.72285                   -27.90764    
                            ---------------------------------------------------------------------------
                                              [TOTAL]:    44.51618     KG            -43.21395     KG  

                                                          NET (IN - OUT):    1.302227    
                                                   DISCREPANCY (PERCENT):    2.968711    
     1 CALLS TO GCG PACKAGE FOR TRANSPORT TIME STEP    63 IN FLOW TIME STEP     1 STRESS PERIOD     2
      2 TOTAL ITERATIONS
     1 CALLS TO GCG PACKAGE FOR TRANSPORT TIME STEP    64 IN FLOW TIME STEP     1 STRESS PERIOD     2
      2 TOTAL ITERATIONS
     1 CALLS TO GCG PACKAGE FOR TRANSPORT TIME STEP    65 IN FLOW TIME STEP     1 STRESS PERIOD     2
      2 TOTAL ITERATIONS



 >>>>>>>>>>>>>>>>>>>>>>>>>>>>>>>>>>>>>>>>>>>>>>>>>>>>>>>FOR COMPONENT NO. 01<<<<<<<<<<<<<<<<<<<<<<<<<<<<<<<<<<<<<<<<<<<<<<<<<<<<<<<


                                            -------------------------------------------
                                                      TRANSPORT STEP NO.   65
                                            -------------------------------------------

 TOTAL ELAPSED TIME SINCE BEGINNING OF SIMULATION =   2097.600    S   
 .....................................................................

 TOTAL PARTICLES USED IN THE CURRENT STEP =      1714
 PARTICLES ADDED AT BEGINNING OF THE STEP =         0
 PARTICLES REMOVED AT END OF LAST STEP    =         0

                     CUMULATIVE MASS BUDGETS AT END OF TRANSPORT STEP   65, TIME STEP    1, STRESS PERIOD    2
                     -----------------------------------------------------------------------------------------

                                                             IN                           OUT
                                                      ----------------             ----------------
                               CONSTANT CONCENTRATION:    12.61073                   -2.224607    
                                        CONSTANT HEAD:    0.000000                  -0.7400101E-04
                               1ST/0TH ORDER REACTION:    0.000000                    0.000000    
                               MASS STOR (FLOW MODEL):    0.000000                    0.000000    
                                MASS STORAGE (SOLUTE):    10.41661                   -13.31264    
                                MASS STORAGE (SORBED):    22.22210                   -28.40030    
                            ---------------------------------------------------------------------------
                                              [TOTAL]:    45.24944     KG            -43.93761     KG  

                                                          NET (IN - OUT):    1.311825    
                                                   DISCREPANCY (PERCENT):    2.941738    
     1 CALLS TO GCG PACKAGE FOR TRANSPORT TIME STEP    66 IN FLOW TIME STEP     1 STRESS PERIOD     2
      2 TOTAL ITERATIONS
     1 CALLS TO GCG PACKAGE FOR TRANSPORT TIME STEP    67 IN FLOW TIME STEP     1 STRESS PERIOD     2
      2 TOTAL ITERATIONS
     1 CALLS TO GCG PACKAGE FOR TRANSPORT TIME STEP    68 IN FLOW TIME STEP     1 STRESS PERIOD     2
      2 TOTAL ITERATIONS



 >>>>>>>>>>>>>>>>>>>>>>>>>>>>>>>>>>>>>>>>>>>>>>>>>>>>>>>FOR COMPONENT NO. 01<<<<<<<<<<<<<<<<<<<<<<<<<<<<<<<<<<<<<<<<<<<<<<<<<<<<<<<


                                            -------------------------------------------
                                                      TRANSPORT STEP NO.   68
                                            -------------------------------------------

 TOTAL ELAPSED TIME SINCE BEGINNING OF SIMULATION =   2188.800    S   
 .....................................................................

 TOTAL PARTICLES USED IN THE CURRENT STEP =      1778
 PARTICLES ADDED AT BEGINNING OF THE STEP =        32
 PARTICLES REMOVED AT END OF LAST STEP    =         0

                     CUMULATIVE MASS BUDGETS AT END OF TRANSPORT STEP   68, TIME STEP    1, STRESS PERIOD    2
                     -----------------------------------------------------------------------------------------

                                                             IN                           OUT
                                                      ----------------             ----------------
                               CONSTANT CONCENTRATION:    12.61073                   -2.224624    
                                        CONSTANT HEAD:    0.000000                  -0.2088996E-03
                               1ST/0TH ORDER REACTION:    0.000000                    0.000000    
                               MASS STOR (FLOW MODEL):    0.000000                    0.000000    
                                MASS STORAGE (SOLUTE):    10.65007                   -13.53759    
                                MASS STORAGE (SORBED):    22.72015                   -28.88020    
                            ---------------------------------------------------------------------------
                                              [TOTAL]:    45.98095     KG            -44.64262     KG  

                                                          NET (IN - OUT):    1.338329    
                                                   DISCREPANCY (PERCENT):    2.953601    
     1 CALLS TO GCG PACKAGE FOR TRANSPORT TIME STEP    69 IN FLOW TIME STEP     1 STRESS PERIOD     2
      2 TOTAL ITERATIONS
     1 CALLS TO GCG PACKAGE FOR TRANSPORT TIME STEP    70 IN FLOW TIME STEP     1 STRESS PERIOD     2
      2 TOTAL ITERATIONS
     1 CALLS TO GCG PACKAGE FOR TRANSPORT TIME STEP    71 IN FLOW TIME STEP     1 STRESS PERIOD     2
      2 TOTAL ITERATIONS



 >>>>>>>>>>>>>>>>>>>>>>>>>>>>>>>>>>>>>>>>>>>>>>>>>>>>>>>FOR COMPONENT NO. 01<<<<<<<<<<<<<<<<<<<<<<<<<<<<<<<<<<<<<<<<<<<<<<<<<<<<<<<


                                            -------------------------------------------
                                                      TRANSPORT STEP NO.   71
                                            -------------------------------------------

 TOTAL ELAPSED TIME SINCE BEGINNING OF SIMULATION =   2280.000    S   
 .....................................................................

 TOTAL PARTICLES USED IN THE CURRENT STEP =      1756
 PARTICLES ADDED AT BEGINNING OF THE STEP =        64
 PARTICLES REMOVED AT END OF LAST STEP    =        86

                     CUMULATIVE MASS BUDGETS AT END OF TRANSPORT STEP   71, TIME STEP    1, STRESS PERIOD    2
                     -----------------------------------------------------------------------------------------

                                                             IN                           OUT
                                                      ----------------             ----------------
                               CONSTANT CONCENTRATION:    12.61073                   -2.224637    
                                        CONSTANT HEAD:    0.000000                  -0.5403151E-03
                               1ST/0TH ORDER REACTION:    0.000000                    0.000000    
                               MASS STOR (FLOW MODEL):    0.000000                    0.000000    
                                MASS STORAGE (SOLUTE):    10.86735                   -13.75725    
                                MASS STORAGE (SORBED):    23.18367                   -29.34880    
                            ---------------------------------------------------------------------------
                                              [TOTAL]:    46.66175     KG            -45.33123     KG  

                                                          NET (IN - OUT):    1.330524    
                                                   DISCREPANCY (PERCENT):    2.892665    
     1 CALLS TO GCG PACKAGE FOR TRANSPORT TIME STEP    72 IN FLOW TIME STEP     1 STRESS PERIOD     2
      2 TOTAL ITERATIONS
     1 CALLS TO GCG PACKAGE FOR TRANSPORT TIME STEP    73 IN FLOW TIME STEP     1 STRESS PERIOD     2
      2 TOTAL ITERATIONS
     1 CALLS TO GCG PACKAGE FOR TRANSPORT TIME STEP    74 IN FLOW TIME STEP     1 STRESS PERIOD     2
      2 TOTAL ITERATIONS



 >>>>>>>>>>>>>>>>>>>>>>>>>>>>>>>>>>>>>>>>>>>>>>>>>>>>>>>FOR COMPONENT NO. 01<<<<<<<<<<<<<<<<<<<<<<<<<<<<<<<<<<<<<<<<<<<<<<<<<<<<<<<


                                            -------------------------------------------
                                                      TRANSPORT STEP NO.   74
                                            -------------------------------------------

 TOTAL ELAPSED TIME SINCE BEGINNING OF SIMULATION =   2371.200    S   
 .....................................................................

 TOTAL PARTICLES USED IN THE CURRENT STEP =      1788
 PARTICLES ADDED AT BEGINNING OF THE STEP =         0
 PARTICLES REMOVED AT END OF LAST STEP    =         0

                     CUMULATIVE MASS BUDGETS AT END OF TRANSPORT STEP   74, TIME STEP    1, STRESS PERIOD    2
                     -----------------------------------------------------------------------------------------

                                                             IN                           OUT
                                                      ----------------             ----------------
                               CONSTANT CONCENTRATION:    12.61073                   -2.224644    
                                        CONSTANT HEAD:    0.000000                  -0.1297581E-02
                               1ST/0TH ORDER REACTION:    0.000000                    0.000000    
                               MASS STOR (FLOW MODEL):    0.000000                    0.000000    
                                MASS STORAGE (SOLUTE):    11.08379                   -13.97300    
                                MASS STORAGE (SORBED):    23.64543                   -29.80908    
                            ---------------------------------------------------------------------------
                                              [TOTAL]:    47.33995     KG            -46.00802     KG  

                                                          NET (IN - OUT):    1.331932    
                                                   DISCREPANCY (PERCENT):    2.853693    
     1 CALLS TO GCG PACKAGE FOR TRANSPORT TIME STEP    75 IN FLOW TIME STEP     1 STRESS PERIOD     2
      2 TOTAL ITERATIONS
     1 CALLS TO GCG PACKAGE FOR TRANSPORT TIME STEP    76 IN FLOW TIME STEP     1 STRESS PERIOD     2
      2 TOTAL ITERATIONS
     1 CALLS TO GCG PACKAGE FOR TRANSPORT TIME STEP    77 IN FLOW TIME STEP     1 STRESS PERIOD     2
      2 TOTAL ITERATIONS



 >>>>>>>>>>>>>>>>>>>>>>>>>>>>>>>>>>>>>>>>>>>>>>>>>>>>>>>FOR COMPONENT NO. 01<<<<<<<<<<<<<<<<<<<<<<<<<<<<<<<<<<<<<<<<<<<<<<<<<<<<<<<


                                            -------------------------------------------
                                                      TRANSPORT STEP NO.   77
                                            -------------------------------------------

 TOTAL ELAPSED TIME SINCE BEGINNING OF SIMULATION =   2462.400    S   
 .....................................................................

 TOTAL PARTICLES USED IN THE CURRENT STEP =      1840
 PARTICLES ADDED AT BEGINNING OF THE STEP =        10
 PARTICLES REMOVED AT END OF LAST STEP    =         0

                     CUMULATIVE MASS BUDGETS AT END OF TRANSPORT STEP   77, TIME STEP    1, STRESS PERIOD    2
                     -----------------------------------------------------------------------------------------

                                                             IN                           OUT
                                                      ----------------             ----------------
                               CONSTANT CONCENTRATION:    12.61073                   -2.224649    
                                        CONSTANT HEAD:    0.000000                  -0.2892230E-02
                               1ST/0TH ORDER REACTION:    0.000000                    0.000000    
                               MASS STOR (FLOW MODEL):    0.000000                    0.000000    
                                MASS STORAGE (SOLUTE):    11.29412                   -14.18170    
                                MASS STORAGE (SORBED):    24.09413                   -30.25430    
                            ---------------------------------------------------------------------------
                                              [TOTAL]:    47.99899     KG            -46.66354     KG  

                                                          NET (IN - OUT):    1.335442    
                                                   DISCREPANCY (PERCENT):    2.821479    
     1 CALLS TO GCG PACKAGE FOR TRANSPORT TIME STEP    78 IN FLOW TIME STEP     1 STRESS PERIOD     2
      2 TOTAL ITERATIONS
     1 CALLS TO GCG PACKAGE FOR TRANSPORT TIME STEP    79 IN FLOW TIME STEP     1 STRESS PERIOD     2
      2 TOTAL ITERATIONS
     1 CALLS TO GCG PACKAGE FOR TRANSPORT TIME STEP    80 IN FLOW TIME STEP     1 STRESS PERIOD     2
      2 TOTAL ITERATIONS



 >>>>>>>>>>>>>>>>>>>>>>>>>>>>>>>>>>>>>>>>>>>>>>>>>>>>>>>FOR COMPONENT NO. 01<<<<<<<<<<<<<<<<<<<<<<<<<<<<<<<<<<<<<<<<<<<<<<<<<<<<<<<


                                            -------------------------------------------
                                                      TRANSPORT STEP NO.   80
                                            -------------------------------------------

 TOTAL ELAPSED TIME SINCE BEGINNING OF SIMULATION =   2553.600    S   
 .....................................................................

 TOTAL PARTICLES USED IN THE CURRENT STEP =      1804
 PARTICLES ADDED AT BEGINNING OF THE STEP =        10
 PARTICLES REMOVED AT END OF LAST STEP    =         0

                     CUMULATIVE MASS BUDGETS AT END OF TRANSPORT STEP   80, TIME STEP    1, STRESS PERIOD    2
                     -----------------------------------------------------------------------------------------

                                                             IN                           OUT
                                                      ----------------             ----------------
                               CONSTANT CONCENTRATION:    12.61073                   -2.224652    
                                        CONSTANT HEAD:    0.000000                  -0.6186170E-02
                               1ST/0TH ORDER REACTION:    0.000000                    0.000000    
                               MASS STOR (FLOW MODEL):    0.000000                    0.000000    
                                MASS STORAGE (SOLUTE):    11.50243                   -14.38606    
                                MASS STORAGE (SORBED):    24.53852                   -30.69027    
                            ---------------------------------------------------------------------------
                                              [TOTAL]:    48.65168     KG            -47.30717     KG  

                                                          NET (IN - OUT):    1.344517    
                                                   DISCREPANCY (PERCENT):    2.802278    
     1 CALLS TO GCG PACKAGE FOR TRANSPORT TIME STEP    81 IN FLOW TIME STEP     1 STRESS PERIOD     2
      2 TOTAL ITERATIONS
     1 CALLS TO GCG PACKAGE FOR TRANSPORT TIME STEP    82 IN FLOW TIME STEP     1 STRESS PERIOD     2
      2 TOTAL ITERATIONS
     1 CALLS TO GCG PACKAGE FOR TRANSPORT TIME STEP    83 IN FLOW TIME STEP     1 STRESS PERIOD     2
      2 TOTAL ITERATIONS



 >>>>>>>>>>>>>>>>>>>>>>>>>>>>>>>>>>>>>>>>>>>>>>>>>>>>>>>FOR COMPONENT NO. 01<<<<<<<<<<<<<<<<<<<<<<<<<<<<<<<<<<<<<<<<<<<<<<<<<<<<<<<


                                            -------------------------------------------
                                                      TRANSPORT STEP NO.   83
                                            -------------------------------------------

 TOTAL ELAPSED TIME SINCE BEGINNING OF SIMULATION =   2644.800    S   
 .....................................................................

 TOTAL PARTICLES USED IN THE CURRENT STEP =      1856
 PARTICLES ADDED AT BEGINNING OF THE STEP =        10
 PARTICLES REMOVED AT END OF LAST STEP    =         0

                     CUMULATIVE MASS BUDGETS AT END OF TRANSPORT STEP   83, TIME STEP    1, STRESS PERIOD    2
                     -----------------------------------------------------------------------------------------

                                                             IN                           OUT
                                                      ----------------             ----------------
                               CONSTANT CONCENTRATION:    12.61073                   -2.224654    
                                        CONSTANT HEAD:    0.000000                  -0.1234116E-01
                               1ST/0TH ORDER REACTION:    0.000000                    0.000000    
                               MASS STOR (FLOW MODEL):    0.000000                    0.000000    
                                MASS STORAGE (SOLUTE):    11.71974                   -14.58506    
                                MASS STORAGE (SORBED):    25.00210                   -31.11479    
                            ---------------------------------------------------------------------------
                                              [TOTAL]:    49.33257     KG            -47.93684     KG  

                                                          NET (IN - OUT):    1.395729    
                                                   DISCREPANCY (PERCENT):    2.869822    
     1 CALLS TO GCG PACKAGE FOR TRANSPORT TIME STEP    84 IN FLOW TIME STEP     1 STRESS PERIOD     2
      2 TOTAL ITERATIONS
     1 CALLS TO GCG PACKAGE FOR TRANSPORT TIME STEP    85 IN FLOW TIME STEP     1 STRESS PERIOD     2
      2 TOTAL ITERATIONS
     1 CALLS TO GCG PACKAGE FOR TRANSPORT TIME STEP    86 IN FLOW TIME STEP     1 STRESS PERIOD     2
      2 TOTAL ITERATIONS



 >>>>>>>>>>>>>>>>>>>>>>>>>>>>>>>>>>>>>>>>>>>>>>>>>>>>>>>FOR COMPONENT NO. 01<<<<<<<<<<<<<<<<<<<<<<<<<<<<<<<<<<<<<<<<<<<<<<<<<<<<<<<


                                            -------------------------------------------
                                                      TRANSPORT STEP NO.   86
                                            -------------------------------------------

 TOTAL ELAPSED TIME SINCE BEGINNING OF SIMULATION =   2736.000    S   
 .....................................................................

 TOTAL PARTICLES USED IN THE CURRENT STEP =      1876
 PARTICLES ADDED AT BEGINNING OF THE STEP =        10
 PARTICLES REMOVED AT END OF LAST STEP    =         0

                     CUMULATIVE MASS BUDGETS AT END OF TRANSPORT STEP   86, TIME STEP    1, STRESS PERIOD    2
                     -----------------------------------------------------------------------------------------

                                                             IN                           OUT
                                                      ----------------             ----------------
                               CONSTANT CONCENTRATION:    12.61073                   -2.224655    
                                        CONSTANT HEAD:    0.000000                  -0.2306704E-01
                               1ST/0TH ORDER REACTION:    0.000000                    0.000000    
                               MASS STOR (FLOW MODEL):    0.000000                    0.000000    
                                MASS STORAGE (SOLUTE):    11.92499                   -14.77966    
                                MASS STORAGE (SORBED):    25.43997                   -31.52994    
                            ---------------------------------------------------------------------------
                                              [TOTAL]:    49.97569     KG            -48.55733     KG  

                                                          NET (IN - OUT):    1.418365    
                                                   DISCREPANCY (PERCENT):    2.878965    
     1 CALLS TO GCG PACKAGE FOR TRANSPORT TIME STEP    87 IN FLOW TIME STEP     1 STRESS PERIOD     2
      2 TOTAL ITERATIONS
     1 CALLS TO GCG PACKAGE FOR TRANSPORT TIME STEP    88 IN FLOW TIME STEP     1 STRESS PERIOD     2
      2 TOTAL ITERATIONS
     1 CALLS TO GCG PACKAGE FOR TRANSPORT TIME STEP    89 IN FLOW TIME STEP     1 STRESS PERIOD     2
      2 TOTAL ITERATIONS



 >>>>>>>>>>>>>>>>>>>>>>>>>>>>>>>>>>>>>>>>>>>>>>>>>>>>>>>FOR COMPONENT NO. 01<<<<<<<<<<<<<<<<<<<<<<<<<<<<<<<<<<<<<<<<<<<<<<<<<<<<<<<


                                            -------------------------------------------
                                                      TRANSPORT STEP NO.   89
                                            -------------------------------------------

 TOTAL ELAPSED TIME SINCE BEGINNING OF SIMULATION =   2827.200    S   
 .....................................................................

 TOTAL PARTICLES USED IN THE CURRENT STEP =      1846
 PARTICLES ADDED AT BEGINNING OF THE STEP =        10
 PARTICLES REMOVED AT END OF LAST STEP    =         0

                     CUMULATIVE MASS BUDGETS AT END OF TRANSPORT STEP   89, TIME STEP    1, STRESS PERIOD    2
                     -----------------------------------------------------------------------------------------

                                                             IN                           OUT
                                                      ----------------             ----------------
                               CONSTANT CONCENTRATION:    12.61073                   -2.224656    
                                        CONSTANT HEAD:    0.000000                  -0.4092269E-01
                               1ST/0TH ORDER REACTION:    0.000000                    0.000000    
                               MASS STOR (FLOW MODEL):    0.000000                    0.000000    
                                MASS STORAGE (SOLUTE):    12.11386                   -14.96476    
                                MASS STORAGE (SORBED):    25.84289                   -31.92483    
                            ---------------------------------------------------------------------------
                                              [TOTAL]:    50.56748     KG            -49.15517     KG  

                                                          NET (IN - OUT):    1.412315    
                                                   DISCREPANCY (PERCENT):    2.832487    
     1 CALLS TO GCG PACKAGE FOR TRANSPORT TIME STEP    90 IN FLOW TIME STEP     1 STRESS PERIOD     2
      2 TOTAL ITERATIONS
     1 CALLS TO GCG PACKAGE FOR TRANSPORT TIME STEP    91 IN FLOW TIME STEP     1 STRESS PERIOD     2
      2 TOTAL ITERATIONS
     1 CALLS TO GCG PACKAGE FOR TRANSPORT TIME STEP    92 IN FLOW TIME STEP     1 STRESS PERIOD     2
      2 TOTAL ITERATIONS



 >>>>>>>>>>>>>>>>>>>>>>>>>>>>>>>>>>>>>>>>>>>>>>>>>>>>>>>FOR COMPONENT NO. 01<<<<<<<<<<<<<<<<<<<<<<<<<<<<<<<<<<<<<<<<<<<<<<<<<<<<<<<


                                            -------------------------------------------
                                                      TRANSPORT STEP NO.   92
                                            -------------------------------------------

 TOTAL ELAPSED TIME SINCE BEGINNING OF SIMULATION =   2918.400    S   
 .....................................................................

 TOTAL PARTICLES USED IN THE CURRENT STEP =      1866
 PARTICLES ADDED AT BEGINNING OF THE STEP =        10
 PARTICLES REMOVED AT END OF LAST STEP    =         0

                     CUMULATIVE MASS BUDGETS AT END OF TRANSPORT STEP   92, TIME STEP    1, STRESS PERIOD    2
                     -----------------------------------------------------------------------------------------

                                                             IN                           OUT
                                                      ----------------             ----------------
                               CONSTANT CONCENTRATION:    12.61073                   -2.224657    
                                        CONSTANT HEAD:    0.000000                  -0.6896996E-01
                               1ST/0TH ORDER REACTION:    0.000000                    0.000000    
                               MASS STOR (FLOW MODEL):    0.000000                    0.000000    
                                MASS STORAGE (SOLUTE):    12.30434                   -15.14159    
                                MASS STORAGE (SORBED):    26.24927                   -32.30207    
                            ---------------------------------------------------------------------------
                                              [TOTAL]:    51.16434     KG            -49.73729     KG  

                                                          NET (IN - OUT):    1.427059    
                                                   DISCREPANCY (PERCENT):    2.828615    
     1 CALLS TO GCG PACKAGE FOR TRANSPORT TIME STEP    93 IN FLOW TIME STEP     1 STRESS PERIOD     2
      2 TOTAL ITERATIONS
     1 CALLS TO GCG PACKAGE FOR TRANSPORT TIME STEP    94 IN FLOW TIME STEP     1 STRESS PERIOD     2
      2 TOTAL ITERATIONS
     1 CALLS TO GCG PACKAGE FOR TRANSPORT TIME STEP    95 IN FLOW TIME STEP     1 STRESS PERIOD     2
      2 TOTAL ITERATIONS



 >>>>>>>>>>>>>>>>>>>>>>>>>>>>>>>>>>>>>>>>>>>>>>>>>>>>>>>FOR COMPONENT NO. 01<<<<<<<<<<<<<<<<<<<<<<<<<<<<<<<<<<<<<<<<<<<<<<<<<<<<<<<


                                            -------------------------------------------
                                                      TRANSPORT STEP NO.   95
                                            -------------------------------------------

 TOTAL ELAPSED TIME SINCE BEGINNING OF SIMULATION =   3009.600    S   
 .....................................................................

 TOTAL PARTICLES USED IN THE CURRENT STEP =      1836
 PARTICLES ADDED AT BEGINNING OF THE STEP =        10
 PARTICLES REMOVED AT END OF LAST STEP    =         0

                     CUMULATIVE MASS BUDGETS AT END OF TRANSPORT STEP   95, TIME STEP    1, STRESS PERIOD    2
                     -----------------------------------------------------------------------------------------

                                                             IN                           OUT
                                                      ----------------             ----------------
                               CONSTANT CONCENTRATION:    12.61073                   -2.224658    
                                        CONSTANT HEAD:    0.000000                  -0.1111597    
                               1ST/0TH ORDER REACTION:    0.000000                    0.000000    
                               MASS STOR (FLOW MODEL):    0.000000                    0.000000    
                                MASS STORAGE (SOLUTE):    12.48767                   -15.31426    
                                MASS STORAGE (SORBED):    26.64036                   -32.67043    
                            ---------------------------------------------------------------------------
                                              [TOTAL]:    51.73875     KG            -50.32050     KG  

                                                          NET (IN - OUT):    1.418251    
                                                   DISCREPANCY (PERCENT):    2.779270    
     1 CALLS TO GCG PACKAGE FOR TRANSPORT TIME STEP    96 IN FLOW TIME STEP     1 STRESS PERIOD     2
      2 TOTAL ITERATIONS
     1 CALLS TO GCG PACKAGE FOR TRANSPORT TIME STEP    97 IN FLOW TIME STEP     1 STRESS PERIOD     2
      2 TOTAL ITERATIONS
     1 CALLS TO GCG PACKAGE FOR TRANSPORT TIME STEP    98 IN FLOW TIME STEP     1 STRESS PERIOD     2
      2 TOTAL ITERATIONS



 >>>>>>>>>>>>>>>>>>>>>>>>>>>>>>>>>>>>>>>>>>>>>>>>>>>>>>>FOR COMPONENT NO. 01<<<<<<<<<<<<<<<<<<<<<<<<<<<<<<<<<<<<<<<<<<<<<<<<<<<<<<<


                                            -------------------------------------------
                                                      TRANSPORT STEP NO.   98
                                            -------------------------------------------

 TOTAL ELAPSED TIME SINCE BEGINNING OF SIMULATION =   3100.800    S   
 .....................................................................

 TOTAL PARTICLES USED IN THE CURRENT STEP =      1856
 PARTICLES ADDED AT BEGINNING OF THE STEP =        10
 PARTICLES REMOVED AT END OF LAST STEP    =         0

                     CUMULATIVE MASS BUDGETS AT END OF TRANSPORT STEP   98, TIME STEP    1, STRESS PERIOD    2
                     -----------------------------------------------------------------------------------------

                                                             IN                           OUT
                                                      ----------------             ----------------
                               CONSTANT CONCENTRATION:    12.61073                   -2.224658    
                                        CONSTANT HEAD:    0.000000                  -0.1724625    
                               1ST/0TH ORDER REACTION:    0.000000                    0.000000    
                               MASS STOR (FLOW MODEL):    0.000000                    0.000000    
                                MASS STORAGE (SOLUTE):    12.66897                   -15.50245    
                                MASS STORAGE (SORBED):    27.02714                   -33.07191    
                            ---------------------------------------------------------------------------
                                              [TOTAL]:    52.30685     KG            -50.97148     KG  

                                                          NET (IN - OUT):    1.335365    
                                                   DISCREPANCY (PERCENT):    2.585954    
     1 CALLS TO GCG PACKAGE FOR TRANSPORT TIME STEP    99 IN FLOW TIME STEP     1 STRESS PERIOD     2
      2 TOTAL ITERATIONS
     1 CALLS TO GCG PACKAGE FOR TRANSPORT TIME STEP   100 IN FLOW TIME STEP     1 STRESS PERIOD     2
      2 TOTAL ITERATIONS
     1 CALLS TO GCG PACKAGE FOR TRANSPORT TIME STEP   101 IN FLOW TIME STEP     1 STRESS PERIOD     2
      2 TOTAL ITERATIONS



 >>>>>>>>>>>>>>>>>>>>>>>>>>>>>>>>>>>>>>>>>>>>>>>>>>>>>>>FOR COMPONENT NO. 01<<<<<<<<<<<<<<<<<<<<<<<<<<<<<<<<<<<<<<<<<<<<<<<<<<<<<<<


                                            -------------------------------------------
                                                      TRANSPORT STEP NO.  101
                                            -------------------------------------------

 TOTAL ELAPSED TIME SINCE BEGINNING OF SIMULATION =   3192.000    S   
 .....................................................................

 TOTAL PARTICLES USED IN THE CURRENT STEP =      1826
 PARTICLES ADDED AT BEGINNING OF THE STEP =        42
 PARTICLES REMOVED AT END OF LAST STEP    =        82

                     CUMULATIVE MASS BUDGETS AT END OF TRANSPORT STEP  101, TIME STEP    1, STRESS PERIOD    2
                     -----------------------------------------------------------------------------------------

                                                             IN                           OUT
                                                      ----------------             ----------------
                               CONSTANT CONCENTRATION:    12.61073                   -2.224658    
                                        CONSTANT HEAD:    0.000000                  -0.2586861    
                               1ST/0TH ORDER REACTION:    0.000000                    0.000000    
                               MASS STOR (FLOW MODEL):    0.000000                    0.000000    
                                MASS STORAGE (SOLUTE):    12.85154                   -15.65614    
                                MASS STORAGE (SORBED):    27.41662                   -33.39978    
                            ---------------------------------------------------------------------------
                                              [TOTAL]:    52.87889     KG            -51.53926     KG  

                                                          NET (IN - OUT):    1.339626    
                                                   DISCREPANCY (PERCENT):    2.565888    
     1 CALLS TO GCG PACKAGE FOR TRANSPORT TIME STEP   102 IN FLOW TIME STEP     1 STRESS PERIOD     2
      2 TOTAL ITERATIONS
     1 CALLS TO GCG PACKAGE FOR TRANSPORT TIME STEP   103 IN FLOW TIME STEP     1 STRESS PERIOD     2
      2 TOTAL ITERATIONS
     1 CALLS TO GCG PACKAGE FOR TRANSPORT TIME STEP   104 IN FLOW TIME STEP     1 STRESS PERIOD     2
      2 TOTAL ITERATIONS



 >>>>>>>>>>>>>>>>>>>>>>>>>>>>>>>>>>>>>>>>>>>>>>>>>>>>>>>FOR COMPONENT NO. 01<<<<<<<<<<<<<<<<<<<<<<<<<<<<<<<<<<<<<<<<<<<<<<<<<<<<<<<


                                            -------------------------------------------
                                                      TRANSPORT STEP NO.  104
                                            -------------------------------------------

 TOTAL ELAPSED TIME SINCE BEGINNING OF SIMULATION =   3283.200    S   
 .....................................................................

 TOTAL PARTICLES USED IN THE CURRENT STEP =      1846
 PARTICLES ADDED AT BEGINNING OF THE STEP =        10
 PARTICLES REMOVED AT END OF LAST STEP    =         0

                     CUMULATIVE MASS BUDGETS AT END OF TRANSPORT STEP  104, TIME STEP    1, STRESS PERIOD    2
                     -----------------------------------------------------------------------------------------

                                                             IN                           OUT
                                                      ----------------             ----------------
                               CONSTANT CONCENTRATION:    12.61073                   -2.224658    
                                        CONSTANT HEAD:    0.000000                  -0.3744080    
                               1ST/0TH ORDER REACTION:    0.000000                    0.000000    
                               MASS STOR (FLOW MODEL):    0.000000                    0.000000    
                                MASS STORAGE (SOLUTE):    13.03176                   -15.79720    
                                MASS STORAGE (SORBED):    27.80108                   -33.70070    
                            ---------------------------------------------------------------------------
                                              [TOTAL]:    53.44357     KG            -52.09697     KG  

                                                          NET (IN - OUT):    1.346607    
                                                   DISCREPANCY (PERCENT):    2.551829    
     1 CALLS TO GCG PACKAGE FOR TRANSPORT TIME STEP   105 IN FLOW TIME STEP     1 STRESS PERIOD     2
      2 TOTAL ITERATIONS
     1 CALLS TO GCG PACKAGE FOR TRANSPORT TIME STEP   106 IN FLOW TIME STEP     1 STRESS PERIOD     2
      2 TOTAL ITERATIONS
     1 CALLS TO GCG PACKAGE FOR TRANSPORT TIME STEP   107 IN FLOW TIME STEP     1 STRESS PERIOD     2
      2 TOTAL ITERATIONS



 >>>>>>>>>>>>>>>>>>>>>>>>>>>>>>>>>>>>>>>>>>>>>>>>>>>>>>>FOR COMPONENT NO. 01<<<<<<<<<<<<<<<<<<<<<<<<<<<<<<<<<<<<<<<<<<<<<<<<<<<<<<<


                                            -------------------------------------------
                                                      TRANSPORT STEP NO.  107
                                            -------------------------------------------

 TOTAL ELAPSED TIME SINCE BEGINNING OF SIMULATION =   3374.400    S   
 .....................................................................

 TOTAL PARTICLES USED IN THE CURRENT STEP =      1866
 PARTICLES ADDED AT BEGINNING OF THE STEP =        10
 PARTICLES REMOVED AT END OF LAST STEP    =         0

                     CUMULATIVE MASS BUDGETS AT END OF TRANSPORT STEP  107, TIME STEP    1, STRESS PERIOD    2
                     -----------------------------------------------------------------------------------------

                                                             IN                           OUT
                                                      ----------------             ----------------
                               CONSTANT CONCENTRATION:    12.61073                   -2.224658    
                                        CONSTANT HEAD:    0.000000                  -0.5232365    
                               1ST/0TH ORDER REACTION:    0.000000                    0.000000    
                               MASS STOR (FLOW MODEL):    0.000000                    0.000000    
                                MASS STORAGE (SOLUTE):    13.21099                   -15.92336    
                                MASS STORAGE (SORBED):    28.18343                   -33.96984    
                            ---------------------------------------------------------------------------
                                              [TOTAL]:    54.00515     KG            -52.64110     KG  

                                                          NET (IN - OUT):    1.364048    
                                                   DISCREPANCY (PERCENT):    2.558079    
     1 CALLS TO GCG PACKAGE FOR TRANSPORT TIME STEP   108 IN FLOW TIME STEP     1 STRESS PERIOD     2
      2 TOTAL ITERATIONS
     1 CALLS TO GCG PACKAGE FOR TRANSPORT TIME STEP   109 IN FLOW TIME STEP     1 STRESS PERIOD     2
      2 TOTAL ITERATIONS
     1 CALLS TO GCG PACKAGE FOR TRANSPORT TIME STEP   110 IN FLOW TIME STEP     1 STRESS PERIOD     2
      2 TOTAL ITERATIONS



 >>>>>>>>>>>>>>>>>>>>>>>>>>>>>>>>>>>>>>>>>>>>>>>>>>>>>>>FOR COMPONENT NO. 01<<<<<<<<<<<<<<<<<<<<<<<<<<<<<<<<<<<<<<<<<<<<<<<<<<<<<<<


                                            -------------------------------------------
                                                      TRANSPORT STEP NO.  110
                                            -------------------------------------------

 TOTAL ELAPSED TIME SINCE BEGINNING OF SIMULATION =   3465.600    S   
 .....................................................................

 TOTAL PARTICLES USED IN THE CURRENT STEP =      1836
 PARTICLES ADDED AT BEGINNING OF THE STEP =        10
 PARTICLES REMOVED AT END OF LAST STEP    =         0

                     CUMULATIVE MASS BUDGETS AT END OF TRANSPORT STEP  110, TIME STEP    1, STRESS PERIOD    2
                     -----------------------------------------------------------------------------------------

                                                             IN                           OUT
                                                      ----------------             ----------------
                               CONSTANT CONCENTRATION:    12.61073                   -2.224658    
                                        CONSTANT HEAD:    0.000000                  -0.7089761    
                               1ST/0TH ORDER REACTION:    0.000000                    0.000000    
                               MASS STOR (FLOW MODEL):    0.000000                    0.000000    
                                MASS STORAGE (SOLUTE):    13.38385                   -16.03244    
                                MASS STORAGE (SORBED):    28.55221                   -34.20255    
                            ---------------------------------------------------------------------------
                                              [TOTAL]:    54.54679     KG            -53.16862     KG  

                                                          NET (IN - OUT):    1.378166    
                                                   DISCREPANCY (PERCENT):    2.558903    
     1 CALLS TO GCG PACKAGE FOR TRANSPORT TIME STEP   111 IN FLOW TIME STEP     1 STRESS PERIOD     2
      2 TOTAL ITERATIONS
     1 CALLS TO GCG PACKAGE FOR TRANSPORT TIME STEP   112 IN FLOW TIME STEP     1 STRESS PERIOD     2
      2 TOTAL ITERATIONS
     1 CALLS TO GCG PACKAGE FOR TRANSPORT TIME STEP   113 IN FLOW TIME STEP     1 STRESS PERIOD     2
      2 TOTAL ITERATIONS



 >>>>>>>>>>>>>>>>>>>>>>>>>>>>>>>>>>>>>>>>>>>>>>>>>>>>>>>FOR COMPONENT NO. 01<<<<<<<<<<<<<<<<<<<<<<<<<<<<<<<<<<<<<<<<<<<<<<<<<<<<<<<


                                            -------------------------------------------
                                                      TRANSPORT STEP NO.  113
                                            -------------------------------------------

 TOTAL ELAPSED TIME SINCE BEGINNING OF SIMULATION =   3556.800    S   
 .....................................................................

 TOTAL PARTICLES USED IN THE CURRENT STEP =      1856
 PARTICLES ADDED AT BEGINNING OF THE STEP =        10
 PARTICLES REMOVED AT END OF LAST STEP    =         0

                     CUMULATIVE MASS BUDGETS AT END OF TRANSPORT STEP  113, TIME STEP    1, STRESS PERIOD    2
                     -----------------------------------------------------------------------------------------

                                                             IN                           OUT
                                                      ----------------             ----------------
                               CONSTANT CONCENTRATION:    12.61073                   -2.224658    
                                        CONSTANT HEAD:    0.000000                  -0.9337801    
                               1ST/0TH ORDER REACTION:    0.000000                    0.000000    
                               MASS STOR (FLOW MODEL):    0.000000                    0.000000    
                                MASS STORAGE (SOLUTE):    13.54976                   -16.12745    
                                MASS STORAGE (SORBED):    28.90614                   -34.40524    
                            ---------------------------------------------------------------------------
                                              [TOTAL]:    55.06663     KG            -53.69113     KG  

                                                          NET (IN - OUT):    1.375500    
                                                   DISCREPANCY (PERCENT):    2.529474    
     1 CALLS TO GCG PACKAGE FOR TRANSPORT TIME STEP   114 IN FLOW TIME STEP     1 STRESS PERIOD     2
      2 TOTAL ITERATIONS
     1 CALLS TO GCG PACKAGE FOR TRANSPORT TIME STEP   115 IN FLOW TIME STEP     1 STRESS PERIOD     2
      2 TOTAL ITERATIONS
     1 CALLS TO GCG PACKAGE FOR TRANSPORT TIME STEP   116 IN FLOW TIME STEP     1 STRESS PERIOD     2
      2 TOTAL ITERATIONS



 >>>>>>>>>>>>>>>>>>>>>>>>>>>>>>>>>>>>>>>>>>>>>>>>>>>>>>>FOR COMPONENT NO. 01<<<<<<<<<<<<<<<<<<<<<<<<<<<<<<<<<<<<<<<<<<<<<<<<<<<<<<<


                                            -------------------------------------------
                                                      TRANSPORT STEP NO.  116
                                            -------------------------------------------

 TOTAL ELAPSED TIME SINCE BEGINNING OF SIMULATION =   3648.000    S   
 .....................................................................

 TOTAL PARTICLES USED IN THE CURRENT STEP =      1826
 PARTICLES ADDED AT BEGINNING OF THE STEP =        42
 PARTICLES REMOVED AT END OF LAST STEP    =        82

                     CUMULATIVE MASS BUDGETS AT END OF TRANSPORT STEP  116, TIME STEP    1, STRESS PERIOD    2
                     -----------------------------------------------------------------------------------------

                                                             IN                           OUT
                                                      ----------------             ----------------
                               CONSTANT CONCENTRATION:    12.61073                   -2.224658    
                                        CONSTANT HEAD:    0.000000                   -1.198156    
                               1ST/0TH ORDER REACTION:    0.000000                    0.000000    
                               MASS STOR (FLOW MODEL):    0.000000                    0.000000    
                                MASS STORAGE (SOLUTE):    13.71249                   -16.20673    
                                MASS STORAGE (SORBED):    29.25332                   -34.57436    
                            ---------------------------------------------------------------------------
                                              [TOTAL]:    55.57655     KG            -54.20391     KG  

                                                          NET (IN - OUT):    1.372639    
                                                   DISCREPANCY (PERCENT):    2.500698    
     1 CALLS TO GCG PACKAGE FOR TRANSPORT TIME STEP   117 IN FLOW TIME STEP     1 STRESS PERIOD     2
      2 TOTAL ITERATIONS
     1 CALLS TO GCG PACKAGE FOR TRANSPORT TIME STEP   118 IN FLOW TIME STEP     1 STRESS PERIOD     2
      2 TOTAL ITERATIONS
     1 CALLS TO GCG PACKAGE FOR TRANSPORT TIME STEP   119 IN FLOW TIME STEP     1 STRESS PERIOD     2
      2 TOTAL ITERATIONS



 >>>>>>>>>>>>>>>>>>>>>>>>>>>>>>>>>>>>>>>>>>>>>>>>>>>>>>>FOR COMPONENT NO. 01<<<<<<<<<<<<<<<<<<<<<<<<<<<<<<<<<<<<<<<<<<<<<<<<<<<<<<<


                                            -------------------------------------------
                                                      TRANSPORT STEP NO.  119
                                            -------------------------------------------

 TOTAL ELAPSED TIME SINCE BEGINNING OF SIMULATION =   3739.200    S   
 .....................................................................

 TOTAL PARTICLES USED IN THE CURRENT STEP =      1846
 PARTICLES ADDED AT BEGINNING OF THE STEP =        10
 PARTICLES REMOVED AT END OF LAST STEP    =         0

                     CUMULATIVE MASS BUDGETS AT END OF TRANSPORT STEP  119, TIME STEP    1, STRESS PERIOD    2
                     -----------------------------------------------------------------------------------------

                                                             IN                           OUT
                                                      ----------------             ----------------
                               CONSTANT CONCENTRATION:    12.61073                   -2.224658    
                                        CONSTANT HEAD:    0.000000                   -1.502223    
                               1ST/0TH ORDER REACTION:    0.000000                    0.000000    
                               MASS STOR (FLOW MODEL):    0.000000                    0.000000    
                                MASS STORAGE (SOLUTE):    13.87586                   -16.27641    
                                MASS STORAGE (SORBED):    29.60184                   -34.72301    
                            ---------------------------------------------------------------------------
                                              [TOTAL]:    56.08843     KG            -54.72630     KG  

                                                          NET (IN - OUT):    1.362129    
                                                   DISCREPANCY (PERCENT):    2.458390    
     1 CALLS TO GCG PACKAGE FOR TRANSPORT TIME STEP   120 IN FLOW TIME STEP     1 STRESS PERIOD     2
      2 TOTAL ITERATIONS
     1 CALLS TO GCG PACKAGE FOR TRANSPORT TIME STEP   121 IN FLOW TIME STEP     1 STRESS PERIOD     2
      2 TOTAL ITERATIONS
     1 CALLS TO GCG PACKAGE FOR TRANSPORT TIME STEP   122 IN FLOW TIME STEP     1 STRESS PERIOD     2
      2 TOTAL ITERATIONS



 >>>>>>>>>>>>>>>>>>>>>>>>>>>>>>>>>>>>>>>>>>>>>>>>>>>>>>>FOR COMPONENT NO. 01<<<<<<<<<<<<<<<<<<<<<<<<<<<<<<<<<<<<<<<<<<<<<<<<<<<<<<<


                                            -------------------------------------------
                                                      TRANSPORT STEP NO.  122
                                            -------------------------------------------

 TOTAL ELAPSED TIME SINCE BEGINNING OF SIMULATION =   3830.400    S   
 .....................................................................

 TOTAL PARTICLES USED IN THE CURRENT STEP =      1866
 PARTICLES ADDED AT BEGINNING OF THE STEP =        10
 PARTICLES REMOVED AT END OF LAST STEP    =         0

                     CUMULATIVE MASS BUDGETS AT END OF TRANSPORT STEP  122, TIME STEP    1, STRESS PERIOD    2
                     -----------------------------------------------------------------------------------------

                                                             IN                           OUT
                                                      ----------------             ----------------
                               CONSTANT CONCENTRATION:    12.61073                   -2.224658    
                                        CONSTANT HEAD:    0.000000                   -1.844811    
                               1ST/0TH ORDER REACTION:    0.000000                    0.000000    
                               MASS STOR (FLOW MODEL):    0.000000                    0.000000    
                                MASS STORAGE (SOLUTE):    14.04402                   -16.33616    
                                MASS STORAGE (SORBED):    29.96057                   -34.85049    
                            ---------------------------------------------------------------------------
                                              [TOTAL]:    56.61533     KG            -55.25613     KG  

                                                          NET (IN - OUT):    1.359200    
                                                   DISCREPANCY (PERCENT):    2.429931    
     1 CALLS TO GCG PACKAGE FOR TRANSPORT TIME STEP   123 IN FLOW TIME STEP     1 STRESS PERIOD     2
      2 TOTAL ITERATIONS
     1 CALLS TO GCG PACKAGE FOR TRANSPORT TIME STEP   124 IN FLOW TIME STEP     1 STRESS PERIOD     2
      2 TOTAL ITERATIONS
     1 CALLS TO GCG PACKAGE FOR TRANSPORT TIME STEP   125 IN FLOW TIME STEP     1 STRESS PERIOD     2
      2 TOTAL ITERATIONS



 >>>>>>>>>>>>>>>>>>>>>>>>>>>>>>>>>>>>>>>>>>>>>>>>>>>>>>>FOR COMPONENT NO. 01<<<<<<<<<<<<<<<<<<<<<<<<<<<<<<<<<<<<<<<<<<<<<<<<<<<<<<<


                                            -------------------------------------------
                                                      TRANSPORT STEP NO.  125
                                            -------------------------------------------

 TOTAL ELAPSED TIME SINCE BEGINNING OF SIMULATION =   3921.600    S   
 .....................................................................

 TOTAL PARTICLES USED IN THE CURRENT STEP =      1832
 PARTICLES ADDED AT BEGINNING OF THE STEP =        10
 PARTICLES REMOVED AT END OF LAST STEP    =         0

                     CUMULATIVE MASS BUDGETS AT END OF TRANSPORT STEP  125, TIME STEP    1, STRESS PERIOD    2
                     -----------------------------------------------------------------------------------------

                                                             IN                           OUT
                                                      ----------------             ----------------
                               CONSTANT CONCENTRATION:    12.61073                   -2.224658    
                                        CONSTANT HEAD:    0.000000                   -2.219615    
                               1ST/0TH ORDER REACTION:    0.000000                    0.000000    
                               MASS STOR (FLOW MODEL):    0.000000                    0.000000    
                                MASS STORAGE (SOLUTE):    14.21087                   -16.38284    
                                MASS STORAGE (SORBED):    30.31652                   -34.95007    
                            ---------------------------------------------------------------------------
                                              [TOTAL]:    57.13812     KG            -55.77718     KG  

                                                          NET (IN - OUT):    1.360935    
                                                   DISCREPANCY (PERCENT):    2.410542    
     1 CALLS TO GCG PACKAGE FOR TRANSPORT TIME STEP   126 IN FLOW TIME STEP     1 STRESS PERIOD     2
      2 TOTAL ITERATIONS
     1 CALLS TO GCG PACKAGE FOR TRANSPORT TIME STEP   127 IN FLOW TIME STEP     1 STRESS PERIOD     2
      2 TOTAL ITERATIONS
     1 CALLS TO GCG PACKAGE FOR TRANSPORT TIME STEP   128 IN FLOW TIME STEP     1 STRESS PERIOD     2
      2 TOTAL ITERATIONS



 >>>>>>>>>>>>>>>>>>>>>>>>>>>>>>>>>>>>>>>>>>>>>>>>>>>>>>>FOR COMPONENT NO. 01<<<<<<<<<<<<<<<<<<<<<<<<<<<<<<<<<<<<<<<<<<<<<<<<<<<<<<<


                                            -------------------------------------------
                                                      TRANSPORT STEP NO.  128
                                            -------------------------------------------

 TOTAL ELAPSED TIME SINCE BEGINNING OF SIMULATION =   4012.800    S   
 .....................................................................

 TOTAL PARTICLES USED IN THE CURRENT STEP =      1852
 PARTICLES ADDED AT BEGINNING OF THE STEP =        10
 PARTICLES REMOVED AT END OF LAST STEP    =         0

                     CUMULATIVE MASS BUDGETS AT END OF TRANSPORT STEP  128, TIME STEP    1, STRESS PERIOD    2
                     -----------------------------------------------------------------------------------------

                                                             IN                           OUT
                                                      ----------------             ----------------
                               CONSTANT CONCENTRATION:    12.61073                   -2.224658    
                                        CONSTANT HEAD:    0.000000                   -2.620983    
                               1ST/0TH ORDER REACTION:    0.000000                    0.000000    
                               MASS STOR (FLOW MODEL):    0.000000                    0.000000    
                                MASS STORAGE (SOLUTE):    14.37754                   -16.41939    
                                MASS STORAGE (SORBED):    30.67208                   -35.02803    
                            ---------------------------------------------------------------------------
                                              [TOTAL]:    57.66036     KG            -56.29306     KG  

                                                          NET (IN - OUT):    1.367302    
                                                   DISCREPANCY (PERCENT):    2.399756    
     1 CALLS TO GCG PACKAGE FOR TRANSPORT TIME STEP   129 IN FLOW TIME STEP     1 STRESS PERIOD     2
      2 TOTAL ITERATIONS
     1 CALLS TO GCG PACKAGE FOR TRANSPORT TIME STEP   130 IN FLOW TIME STEP     1 STRESS PERIOD     2
      2 TOTAL ITERATIONS
     1 CALLS TO GCG PACKAGE FOR TRANSPORT TIME STEP   131 IN FLOW TIME STEP     1 STRESS PERIOD     2
      2 TOTAL ITERATIONS



 >>>>>>>>>>>>>>>>>>>>>>>>>>>>>>>>>>>>>>>>>>>>>>>>>>>>>>>FOR COMPONENT NO. 01<<<<<<<<<<<<<<<<<<<<<<<<<<<<<<<<<<<<<<<<<<<<<<<<<<<<<<<


                                            -------------------------------------------
                                                      TRANSPORT STEP NO.  131
                                            -------------------------------------------

 TOTAL ELAPSED TIME SINCE BEGINNING OF SIMULATION =   4104.000    S   
 .....................................................................

 TOTAL PARTICLES USED IN THE CURRENT STEP =      1872
 PARTICLES ADDED AT BEGINNING OF THE STEP =        10
 PARTICLES REMOVED AT END OF LAST STEP    =         0

                     CUMULATIVE MASS BUDGETS AT END OF TRANSPORT STEP  131, TIME STEP    1, STRESS PERIOD    2
                     -----------------------------------------------------------------------------------------

                                                             IN                           OUT
                                                      ----------------             ----------------
                               CONSTANT CONCENTRATION:    12.61073                   -2.224658    
                                        CONSTANT HEAD:    0.000000                   -3.042078    
                               1ST/0TH ORDER REACTION:    0.000000                    0.000000    
                               MASS STOR (FLOW MODEL):    0.000000                    0.000000    
                                MASS STORAGE (SOLUTE):    14.53891                   -16.44411    
                                MASS STORAGE (SORBED):    31.01635                   -35.08078    
                            ---------------------------------------------------------------------------
                                              [TOTAL]:    58.16599     KG            -56.79163     KG  

                                                          NET (IN - OUT):    1.374363    
                                                   DISCREPANCY (PERCENT):    2.391078    
     1 CALLS TO GCG PACKAGE FOR TRANSPORT TIME STEP   132 IN FLOW TIME STEP     1 STRESS PERIOD     2
      2 TOTAL ITERATIONS
     1 CALLS TO GCG PACKAGE FOR TRANSPORT TIME STEP   133 IN FLOW TIME STEP     1 STRESS PERIOD     2
      2 TOTAL ITERATIONS
     1 CALLS TO GCG PACKAGE FOR TRANSPORT TIME STEP   134 IN FLOW TIME STEP     1 STRESS PERIOD     2
      2 TOTAL ITERATIONS



 >>>>>>>>>>>>>>>>>>>>>>>>>>>>>>>>>>>>>>>>>>>>>>>>>>>>>>>FOR COMPONENT NO. 01<<<<<<<<<<<<<<<<<<<<<<<<<<<<<<<<<<<<<<<<<<<<<<<<<<<<<<<


                                            -------------------------------------------
                                                      TRANSPORT STEP NO.  134
                                            -------------------------------------------

 TOTAL ELAPSED TIME SINCE BEGINNING OF SIMULATION =   4195.200    S   
 .....................................................................

 TOTAL PARTICLES USED IN THE CURRENT STEP =      1840
 PARTICLES ADDED AT BEGINNING OF THE STEP =        10
 PARTICLES REMOVED AT END OF LAST STEP    =         0

                     CUMULATIVE MASS BUDGETS AT END OF TRANSPORT STEP  134, TIME STEP    1, STRESS PERIOD    2
                     -----------------------------------------------------------------------------------------

                                                             IN                           OUT
                                                      ----------------             ----------------
                               CONSTANT CONCENTRATION:    12.61073                   -2.224658    
                                        CONSTANT HEAD:    0.000000                   -3.476113    
                               1ST/0TH ORDER REACTION:    0.000000                    0.000000    
                               MASS STOR (FLOW MODEL):    0.000000                    0.000000    
                                MASS STORAGE (SOLUTE):    14.69283                   -16.46144    
                                MASS STORAGE (SORBED):    31.34471                   -35.11774    
                            ---------------------------------------------------------------------------
                                              [TOTAL]:    58.64827     KG            -57.27995     KG  

                                                          NET (IN - OUT):    1.368320    
                                                   DISCREPANCY (PERCENT):    2.360634    
     1 CALLS TO GCG PACKAGE FOR TRANSPORT TIME STEP   135 IN FLOW TIME STEP     1 STRESS PERIOD     2
      2 TOTAL ITERATIONS
     1 CALLS TO GCG PACKAGE FOR TRANSPORT TIME STEP   136 IN FLOW TIME STEP     1 STRESS PERIOD     2
      2 TOTAL ITERATIONS
     1 CALLS TO GCG PACKAGE FOR TRANSPORT TIME STEP   137 IN FLOW TIME STEP     1 STRESS PERIOD     2
      2 TOTAL ITERATIONS



 >>>>>>>>>>>>>>>>>>>>>>>>>>>>>>>>>>>>>>>>>>>>>>>>>>>>>>>FOR COMPONENT NO. 01<<<<<<<<<<<<<<<<<<<<<<<<<<<<<<<<<<<<<<<<<<<<<<<<<<<<<<<


                                            -------------------------------------------
                                                      TRANSPORT STEP NO.  137
                                            -------------------------------------------

 TOTAL ELAPSED TIME SINCE BEGINNING OF SIMULATION =   4286.400    S   
 .....................................................................

 TOTAL PARTICLES USED IN THE CURRENT STEP =      1860
 PARTICLES ADDED AT BEGINNING OF THE STEP =        10
 PARTICLES REMOVED AT END OF LAST STEP    =         0

                     CUMULATIVE MASS BUDGETS AT END OF TRANSPORT STEP  137, TIME STEP    1, STRESS PERIOD    2
                     -----------------------------------------------------------------------------------------

                                                             IN                           OUT
                                                      ----------------             ----------------
                               CONSTANT CONCENTRATION:    12.61073                   -2.224658    
                                        CONSTANT HEAD:    0.000000                   -3.918231    
                               1ST/0TH ORDER REACTION:    0.000000                    0.000000    
                               MASS STOR (FLOW MODEL):    0.000000                    0.000000    
                                MASS STORAGE (SOLUTE):    14.84157                   -16.47059    
                                MASS STORAGE (SORBED):    31.66201                   -35.13728    
                            ---------------------------------------------------------------------------
                                              [TOTAL]:    59.11431     KG            -57.75076     KG  

                                                          NET (IN - OUT):    1.363556    
                                                   DISCREPANCY (PERCENT):    2.333556    
     1 CALLS TO GCG PACKAGE FOR TRANSPORT TIME STEP   138 IN FLOW TIME STEP     1 STRESS PERIOD     2
      2 TOTAL ITERATIONS
     1 CALLS TO GCG PACKAGE FOR TRANSPORT TIME STEP   139 IN FLOW TIME STEP     1 STRESS PERIOD     2
      2 TOTAL ITERATIONS
     1 CALLS TO GCG PACKAGE FOR TRANSPORT TIME STEP   140 IN FLOW TIME STEP     1 STRESS PERIOD     2
      2 TOTAL ITERATIONS



 >>>>>>>>>>>>>>>>>>>>>>>>>>>>>>>>>>>>>>>>>>>>>>>>>>>>>>>FOR COMPONENT NO. 01<<<<<<<<<<<<<<<<<<<<<<<<<<<<<<<<<<<<<<<<<<<<<<<<<<<<<<<


                                            -------------------------------------------
                                                      TRANSPORT STEP NO.  140
                                            -------------------------------------------

 TOTAL ELAPSED TIME SINCE BEGINNING OF SIMULATION =   4377.600    S   
 .....................................................................

 TOTAL PARTICLES USED IN THE CURRENT STEP =      1830
 PARTICLES ADDED AT BEGINNING OF THE STEP =        10
 PARTICLES REMOVED AT END OF LAST STEP    =         0

                     CUMULATIVE MASS BUDGETS AT END OF TRANSPORT STEP  140, TIME STEP    1, STRESS PERIOD    2
                     -----------------------------------------------------------------------------------------

                                                             IN                           OUT
                                                      ----------------             ----------------
                               CONSTANT CONCENTRATION:    12.61073                   -2.224658    
                                        CONSTANT HEAD:    0.000000                   -4.360580    
                               1ST/0TH ORDER REACTION:    0.000000                    0.000000    
                               MASS STOR (FLOW MODEL):    0.000000                    0.000000    
                                MASS STORAGE (SOLUTE):    14.98405                   -16.47599    
                                MASS STORAGE (SORBED):    31.96598                   -35.14880    
                            ---------------------------------------------------------------------------
                                              [TOTAL]:    59.56077     KG            -58.21003     KG  

                                                          NET (IN - OUT):    1.350742    
                                                   DISCREPANCY (PERCENT):    2.293849    
     1 CALLS TO GCG PACKAGE FOR TRANSPORT TIME STEP   141 IN FLOW TIME STEP     1 STRESS PERIOD     2
      2 TOTAL ITERATIONS
     1 CALLS TO GCG PACKAGE FOR TRANSPORT TIME STEP   142 IN FLOW TIME STEP     1 STRESS PERIOD     2
      2 TOTAL ITERATIONS
     1 CALLS TO GCG PACKAGE FOR TRANSPORT TIME STEP   143 IN FLOW TIME STEP     1 STRESS PERIOD     2
      2 TOTAL ITERATIONS



 >>>>>>>>>>>>>>>>>>>>>>>>>>>>>>>>>>>>>>>>>>>>>>>>>>>>>>>FOR COMPONENT NO. 01<<<<<<<<<<<<<<<<<<<<<<<<<<<<<<<<<<<<<<<<<<<<<<<<<<<<<<<


                                            -------------------------------------------
                                                      TRANSPORT STEP NO.  143
                                            -------------------------------------------

 TOTAL ELAPSED TIME SINCE BEGINNING OF SIMULATION =   4468.800    S   
 .....................................................................

 TOTAL PARTICLES USED IN THE CURRENT STEP =      1796
 PARTICLES ADDED AT BEGINNING OF THE STEP =        42
 PARTICLES REMOVED AT END OF LAST STEP    =        86

                     CUMULATIVE MASS BUDGETS AT END OF TRANSPORT STEP  143, TIME STEP    1, STRESS PERIOD    2
                     -----------------------------------------------------------------------------------------

                                                             IN                           OUT
                                                      ----------------             ----------------
                               CONSTANT CONCENTRATION:    12.61073                   -2.224658    
                                        CONSTANT HEAD:    0.000000                   -4.792224    
                               1ST/0TH ORDER REACTION:    0.000000                    0.000000    
                               MASS STOR (FLOW MODEL):    0.000000                    0.000000    
                                MASS STORAGE (SOLUTE):    15.12542                   -16.47675    
                                MASS STORAGE (SORBED):    32.26757                   -35.15040    
                            ---------------------------------------------------------------------------
                                              [TOTAL]:    60.00372     KG            -58.64403     KG  

                                                          NET (IN - OUT):    1.359695    
                                                   DISCREPANCY (PERCENT):    2.291987    
     1 CALLS TO GCG PACKAGE FOR TRANSPORT TIME STEP   144 IN FLOW TIME STEP     1 STRESS PERIOD     2
      2 TOTAL ITERATIONS
     1 CALLS TO GCG PACKAGE FOR TRANSPORT TIME STEP   145 IN FLOW TIME STEP     1 STRESS PERIOD     2
      2 TOTAL ITERATIONS
     1 CALLS TO GCG PACKAGE FOR TRANSPORT TIME STEP   146 IN FLOW TIME STEP     1 STRESS PERIOD     2
      2 TOTAL ITERATIONS



 >>>>>>>>>>>>>>>>>>>>>>>>>>>>>>>>>>>>>>>>>>>>>>>>>>>>>>>FOR COMPONENT NO. 01<<<<<<<<<<<<<<<<<<<<<<<<<<<<<<<<<<<<<<<<<<<<<<<<<<<<<<<


                                            -------------------------------------------
                                                      TRANSPORT STEP NO.  146
                                            -------------------------------------------

 TOTAL ELAPSED TIME SINCE BEGINNING OF SIMULATION =   4560.000    S   
 .....................................................................

 TOTAL PARTICLES USED IN THE CURRENT STEP =      1760
 PARTICLES ADDED AT BEGINNING OF THE STEP =        42
 PARTICLES REMOVED AT END OF LAST STEP    =        88

                     CUMULATIVE MASS BUDGETS AT END OF TRANSPORT STEP  146, TIME STEP    1, STRESS PERIOD    2
                     -----------------------------------------------------------------------------------------

                                                             IN                           OUT
                                                      ----------------             ----------------
                               CONSTANT CONCENTRATION:    12.61073                   -2.224658    
                                        CONSTANT HEAD:    0.000000                   -5.208776    
                               1ST/0TH ORDER REACTION:    0.000000                    0.000000    
                               MASS STOR (FLOW MODEL):    0.000000                    0.000000    
                                MASS STORAGE (SOLUTE):    15.25930                   -16.47675    
                                MASS STORAGE (SORBED):    32.55318                   -35.15041    
                            ---------------------------------------------------------------------------
                                              [TOTAL]:    60.42322     KG            -59.06059     KG  

                                                          NET (IN - OUT):    1.362633    
                                                   DISCREPANCY (PERCENT):    2.280866    
     1 CALLS TO GCG PACKAGE FOR TRANSPORT TIME STEP   147 IN FLOW TIME STEP     1 STRESS PERIOD     2
      2 TOTAL ITERATIONS
     1 CALLS TO GCG PACKAGE FOR TRANSPORT TIME STEP   148 IN FLOW TIME STEP     1 STRESS PERIOD     2
      2 TOTAL ITERATIONS
     1 CALLS TO GCG PACKAGE FOR TRANSPORT TIME STEP   149 IN FLOW TIME STEP     1 STRESS PERIOD     2
      2 TOTAL ITERATIONS



 >>>>>>>>>>>>>>>>>>>>>>>>>>>>>>>>>>>>>>>>>>>>>>>>>>>>>>>FOR COMPONENT NO. 01<<<<<<<<<<<<<<<<<<<<<<<<<<<<<<<<<<<<<<<<<<<<<<<<<<<<<<<


                                            -------------------------------------------
                                                      TRANSPORT STEP NO.  149
                                            -------------------------------------------

 TOTAL ELAPSED TIME SINCE BEGINNING OF SIMULATION =   4651.200    S   
 .....................................................................

 TOTAL PARTICLES USED IN THE CURRENT STEP =      1780
 PARTICLES ADDED AT BEGINNING OF THE STEP =        10
 PARTICLES REMOVED AT END OF LAST STEP    =         0

                     CUMULATIVE MASS BUDGETS AT END OF TRANSPORT STEP  149, TIME STEP    1, STRESS PERIOD    2
                     -----------------------------------------------------------------------------------------

                                                             IN                           OUT
                                                      ----------------             ----------------
                               CONSTANT CONCENTRATION:    12.61073                   -2.224658    
                                        CONSTANT HEAD:    0.000000                   -5.607720    
                               1ST/0TH ORDER REACTION:    0.000000                    0.000000    
                               MASS STOR (FLOW MODEL):    0.000000                    0.000000    
                                MASS STORAGE (SOLUTE):    15.38811                   -16.47675    
                                MASS STORAGE (SORBED):    32.82798                   -35.15041    
                            ---------------------------------------------------------------------------
                                              [TOTAL]:    60.82683     KG            -59.45954     KG  

                                                          NET (IN - OUT):    1.367290    
                                                   DISCREPANCY (PERCENT):    2.273392    
     1 CALLS TO GCG PACKAGE FOR TRANSPORT TIME STEP   150 IN FLOW TIME STEP     1 STRESS PERIOD     2
      2 TOTAL ITERATIONS
     1 CALLS TO GCG PACKAGE FOR TRANSPORT TIME STEP   151 IN FLOW TIME STEP     1 STRESS PERIOD     2
      2 TOTAL ITERATIONS
     1 CALLS TO GCG PACKAGE FOR TRANSPORT TIME STEP   152 IN FLOW TIME STEP     1 STRESS PERIOD     2
      2 TOTAL ITERATIONS



 >>>>>>>>>>>>>>>>>>>>>>>>>>>>>>>>>>>>>>>>>>>>>>>>>>>>>>>FOR COMPONENT NO. 01<<<<<<<<<<<<<<<<<<<<<<<<<<<<<<<<<<<<<<<<<<<<<<<<<<<<<<<


                                            -------------------------------------------
                                                      TRANSPORT STEP NO.  152
                                            -------------------------------------------

 TOTAL ELAPSED TIME SINCE BEGINNING OF SIMULATION =   4742.400    S   
 .....................................................................

 TOTAL PARTICLES USED IN THE CURRENT STEP =      1736
 PARTICLES ADDED AT BEGINNING OF THE STEP =        10
 PARTICLES REMOVED AT END OF LAST STEP    =         0

                     CUMULATIVE MASS BUDGETS AT END OF TRANSPORT STEP  152, TIME STEP    1, STRESS PERIOD    2
                     -----------------------------------------------------------------------------------------

                                                             IN                           OUT
                                                      ----------------             ----------------
                               CONSTANT CONCENTRATION:    12.61073                   -2.224658    
                                        CONSTANT HEAD:    0.000000                   -5.985465    
                               1ST/0TH ORDER REACTION:    0.000000                    0.000000    
                               MASS STOR (FLOW MODEL):    0.000000                    0.000000    
                                MASS STORAGE (SOLUTE):    15.50955                   -16.47675    
                                MASS STORAGE (SORBED):    33.08704                   -35.15041    
                            ---------------------------------------------------------------------------
                                              [TOTAL]:    61.20732     KG            -59.83728     KG  

                                                          NET (IN - OUT):    1.370045    
                                                   DISCREPANCY (PERCENT):    2.263702    
     1 CALLS TO GCG PACKAGE FOR TRANSPORT TIME STEP   153 IN FLOW TIME STEP     1 STRESS PERIOD     2
      2 TOTAL ITERATIONS
     1 CALLS TO GCG PACKAGE FOR TRANSPORT TIME STEP   154 IN FLOW TIME STEP     1 STRESS PERIOD     2
      2 TOTAL ITERATIONS
     1 CALLS TO GCG PACKAGE FOR TRANSPORT TIME STEP   155 IN FLOW TIME STEP     1 STRESS PERIOD     2
      2 TOTAL ITERATIONS



 >>>>>>>>>>>>>>>>>>>>>>>>>>>>>>>>>>>>>>>>>>>>>>>>>>>>>>>FOR COMPONENT NO. 01<<<<<<<<<<<<<<<<<<<<<<<<<<<<<<<<<<<<<<<<<<<<<<<<<<<<<<<


                                            -------------------------------------------
                                                      TRANSPORT STEP NO.  155
                                            -------------------------------------------

 TOTAL ELAPSED TIME SINCE BEGINNING OF SIMULATION =   4833.600    S   
 .....................................................................

 TOTAL PARTICLES USED IN THE CURRENT STEP =      1692
 PARTICLES ADDED AT BEGINNING OF THE STEP =        10
 PARTICLES REMOVED AT END OF LAST STEP    =         0

                     CUMULATIVE MASS BUDGETS AT END OF TRANSPORT STEP  155, TIME STEP    1, STRESS PERIOD    2
                     -----------------------------------------------------------------------------------------

                                                             IN                           OUT
                                                      ----------------             ----------------
                               CONSTANT CONCENTRATION:    12.61073                   -2.224658    
                                        CONSTANT HEAD:    0.000000                   -6.338588    
                               1ST/0TH ORDER REACTION:    0.000000                    0.000000    
                               MASS STOR (FLOW MODEL):    0.000000                    0.000000    
                                MASS STORAGE (SOLUTE):    15.62345                   -16.47675    
                                MASS STORAGE (SORBED):    33.33004                   -35.15041    
                            ---------------------------------------------------------------------------
                                              [TOTAL]:    61.56423     KG            -60.19041     KG  

                                                          NET (IN - OUT):    1.373821    
                                                   DISCREPANCY (PERCENT):    2.256705    
     1 CALLS TO GCG PACKAGE FOR TRANSPORT TIME STEP   156 IN FLOW TIME STEP     1 STRESS PERIOD     2
      2 TOTAL ITERATIONS
     1 CALLS TO GCG PACKAGE FOR TRANSPORT TIME STEP   157 IN FLOW TIME STEP     1 STRESS PERIOD     2
      2 TOTAL ITERATIONS
     1 CALLS TO GCG PACKAGE FOR TRANSPORT TIME STEP   158 IN FLOW TIME STEP     1 STRESS PERIOD     2
      2 TOTAL ITERATIONS



 >>>>>>>>>>>>>>>>>>>>>>>>>>>>>>>>>>>>>>>>>>>>>>>>>>>>>>>FOR COMPONENT NO. 01<<<<<<<<<<<<<<<<<<<<<<<<<<<<<<<<<<<<<<<<<<<<<<<<<<<<<<<


                                            -------------------------------------------
                                                      TRANSPORT STEP NO.  158
                                            -------------------------------------------

 TOTAL ELAPSED TIME SINCE BEGINNING OF SIMULATION =   4924.800    S   
 .....................................................................

 TOTAL PARTICLES USED IN THE CURRENT STEP =      1648
 PARTICLES ADDED AT BEGINNING OF THE STEP =        10
 PARTICLES REMOVED AT END OF LAST STEP    =         0

                     CUMULATIVE MASS BUDGETS AT END OF TRANSPORT STEP  158, TIME STEP    1, STRESS PERIOD    2
                     -----------------------------------------------------------------------------------------

                                                             IN                           OUT
                                                      ----------------             ----------------
                               CONSTANT CONCENTRATION:    12.61073                   -2.224658    
                                        CONSTANT HEAD:    0.000000                   -6.664066    
                               1ST/0TH ORDER REACTION:    0.000000                    0.000000    
                               MASS STOR (FLOW MODEL):    0.000000                    0.000000    
                                MASS STORAGE (SOLUTE):    15.72925                   -16.47675    
                                MASS STORAGE (SORBED):    33.55574                   -35.15041    
                            ---------------------------------------------------------------------------
                                              [TOTAL]:    61.89573     KG            -60.51588     KG  

                                                          NET (IN - OUT):    1.379841    
                                                   DISCREPANCY (PERCENT):    2.254428    
     1 CALLS TO GCG PACKAGE FOR TRANSPORT TIME STEP   159 IN FLOW TIME STEP     1 STRESS PERIOD     2
      2 TOTAL ITERATIONS
     1 CALLS TO GCG PACKAGE FOR TRANSPORT TIME STEP   160 IN FLOW TIME STEP     1 STRESS PERIOD     2
      2 TOTAL ITERATIONS
     1 CALLS TO GCG PACKAGE FOR TRANSPORT TIME STEP   161 IN FLOW TIME STEP     1 STRESS PERIOD     2
      2 TOTAL ITERATIONS



 >>>>>>>>>>>>>>>>>>>>>>>>>>>>>>>>>>>>>>>>>>>>>>>>>>>>>>>FOR COMPONENT NO. 01<<<<<<<<<<<<<<<<<<<<<<<<<<<<<<<<<<<<<<<<<<<<<<<<<<<<<<<


                                            -------------------------------------------
                                                      TRANSPORT STEP NO.  161
                                            -------------------------------------------

 TOTAL ELAPSED TIME SINCE BEGINNING OF SIMULATION =   5016.000    S   
 .....................................................................

 TOTAL PARTICLES USED IN THE CURRENT STEP =      1604
 PARTICLES ADDED AT BEGINNING OF THE STEP =        42
 PARTICLES REMOVED AT END OF LAST STEP    =        96

                     CUMULATIVE MASS BUDGETS AT END OF TRANSPORT STEP  161, TIME STEP    1, STRESS PERIOD    2
                     -----------------------------------------------------------------------------------------

                                                             IN                           OUT
                                                      ----------------             ----------------
                               CONSTANT CONCENTRATION:    12.61073                   -2.224658    
                                        CONSTANT HEAD:    0.000000                   -6.961988    
                               1ST/0TH ORDER REACTION:    0.000000                    0.000000    
                               MASS STOR (FLOW MODEL):    0.000000                    0.000000    
                                MASS STORAGE (SOLUTE):    15.82664                   -16.47675    
                                MASS STORAGE (SORBED):    33.76350                   -35.15041    
                            ---------------------------------------------------------------------------
                                              [TOTAL]:    62.20087     KG            -60.81380     KG  

                                                          NET (IN - OUT):    1.387062    
                                                   DISCREPANCY (PERCENT):    2.255116    
     1 CALLS TO GCG PACKAGE FOR TRANSPORT TIME STEP   162 IN FLOW TIME STEP     1 STRESS PERIOD     2
      2 TOTAL ITERATIONS
     1 CALLS TO GCG PACKAGE FOR TRANSPORT TIME STEP   163 IN FLOW TIME STEP     1 STRESS PERIOD     2
      2 TOTAL ITERATIONS
     1 CALLS TO GCG PACKAGE FOR TRANSPORT TIME STEP   164 IN FLOW TIME STEP     1 STRESS PERIOD     2
      2 TOTAL ITERATIONS



 >>>>>>>>>>>>>>>>>>>>>>>>>>>>>>>>>>>>>>>>>>>>>>>>>>>>>>>FOR COMPONENT NO. 01<<<<<<<<<<<<<<<<<<<<<<<<<<<<<<<<<<<<<<<<<<<<<<<<<<<<<<<


                                            -------------------------------------------
                                                      TRANSPORT STEP NO.  164
                                            -------------------------------------------

 TOTAL ELAPSED TIME SINCE BEGINNING OF SIMULATION =   5107.200    S   
 .....................................................................

 TOTAL PARTICLES USED IN THE CURRENT STEP =      1624
 PARTICLES ADDED AT BEGINNING OF THE STEP =        10
 PARTICLES REMOVED AT END OF LAST STEP    =         0

                     CUMULATIVE MASS BUDGETS AT END OF TRANSPORT STEP  164, TIME STEP    1, STRESS PERIOD    2
                     -----------------------------------------------------------------------------------------

                                                             IN                           OUT
                                                      ----------------             ----------------
                               CONSTANT CONCENTRATION:    12.61073                   -2.224658    
                                        CONSTANT HEAD:    0.000000                   -7.231814    
                               1ST/0TH ORDER REACTION:    0.000000                    0.000000    
                               MASS STOR (FLOW MODEL):    0.000000                    0.000000    
                                MASS STORAGE (SOLUTE):    15.91448                   -16.47675    
                                MASS STORAGE (SORBED):    33.95089                   -35.15041    
                            ---------------------------------------------------------------------------
                                              [TOTAL]:    62.47610     KG            -61.08363     KG  

                                                          NET (IN - OUT):    1.392464    
                                                   DISCREPANCY (PERCENT):    2.253912    
     1 CALLS TO GCG PACKAGE FOR TRANSPORT TIME STEP   165 IN FLOW TIME STEP     1 STRESS PERIOD     2
      2 TOTAL ITERATIONS
     1 CALLS TO GCG PACKAGE FOR TRANSPORT TIME STEP   166 IN FLOW TIME STEP     1 STRESS PERIOD     2
      2 TOTAL ITERATIONS
     1 CALLS TO GCG PACKAGE FOR TRANSPORT TIME STEP   167 IN FLOW TIME STEP     1 STRESS PERIOD     2
      2 TOTAL ITERATIONS



 >>>>>>>>>>>>>>>>>>>>>>>>>>>>>>>>>>>>>>>>>>>>>>>>>>>>>>>FOR COMPONENT NO. 01<<<<<<<<<<<<<<<<<<<<<<<<<<<<<<<<<<<<<<<<<<<<<<<<<<<<<<<


                                            -------------------------------------------
                                                      TRANSPORT STEP NO.  167
                                            -------------------------------------------

 TOTAL ELAPSED TIME SINCE BEGINNING OF SIMULATION =   5198.400    S   
 .....................................................................

 TOTAL PARTICLES USED IN THE CURRENT STEP =      1580
 PARTICLES ADDED AT BEGINNING OF THE STEP =        10
 PARTICLES REMOVED AT END OF LAST STEP    =         0

                     CUMULATIVE MASS BUDGETS AT END OF TRANSPORT STEP  167, TIME STEP    1, STRESS PERIOD    2
                     -----------------------------------------------------------------------------------------

                                                             IN                           OUT
                                                      ----------------             ----------------
                               CONSTANT CONCENTRATION:    12.61073                   -2.224658    
                                        CONSTANT HEAD:    0.000000                   -7.474053    
                               1ST/0TH ORDER REACTION:    0.000000                    0.000000    
                               MASS STOR (FLOW MODEL):    0.000000                    0.000000    
                                MASS STORAGE (SOLUTE):    15.99297                   -16.47675    
                                MASS STORAGE (SORBED):    34.11834                   -35.15041    
                            ---------------------------------------------------------------------------
                                              [TOTAL]:    62.72205     KG            -61.32587     KG  

                                                          NET (IN - OUT):    1.396175    
                                                   DISCREPANCY (PERCENT):    2.251026    
     1 CALLS TO GCG PACKAGE FOR TRANSPORT TIME STEP   168 IN FLOW TIME STEP     1 STRESS PERIOD     2
      2 TOTAL ITERATIONS
     1 CALLS TO GCG PACKAGE FOR TRANSPORT TIME STEP   169 IN FLOW TIME STEP     1 STRESS PERIOD     2
      2 TOTAL ITERATIONS
     1 CALLS TO GCG PACKAGE FOR TRANSPORT TIME STEP   170 IN FLOW TIME STEP     1 STRESS PERIOD     2
      2 TOTAL ITERATIONS



 >>>>>>>>>>>>>>>>>>>>>>>>>>>>>>>>>>>>>>>>>>>>>>>>>>>>>>>FOR COMPONENT NO. 01<<<<<<<<<<<<<<<<<<<<<<<<<<<<<<<<<<<<<<<<<<<<<<<<<<<<<<<


                                            -------------------------------------------
                                                      TRANSPORT STEP NO.  170
                                            -------------------------------------------

 TOTAL ELAPSED TIME SINCE BEGINNING OF SIMULATION =   5289.600    S   
 .....................................................................

 TOTAL PARTICLES USED IN THE CURRENT STEP =      1536
 PARTICLES ADDED AT BEGINNING OF THE STEP =        10
 PARTICLES REMOVED AT END OF LAST STEP    =         0

                     CUMULATIVE MASS BUDGETS AT END OF TRANSPORT STEP  170, TIME STEP    1, STRESS PERIOD    2
                     -----------------------------------------------------------------------------------------

                                                             IN                           OUT
                                                      ----------------             ----------------
                               CONSTANT CONCENTRATION:    12.61073                   -2.224658    
                                        CONSTANT HEAD:    0.000000                   -7.688718    
                               1ST/0TH ORDER REACTION:    0.000000                    0.000000    
                               MASS STOR (FLOW MODEL):    0.000000                    0.000000    
                                MASS STORAGE (SOLUTE):    16.06339                   -16.47675    
                                MASS STORAGE (SORBED):    34.26857                   -35.15041    
                            ---------------------------------------------------------------------------
                                              [TOTAL]:    62.94269     KG            -61.54053     KG  

                                                          NET (IN - OUT):    1.402153    
                                                   DISCREPANCY (PERCENT):    2.252758    
     1 CALLS TO GCG PACKAGE FOR TRANSPORT TIME STEP   171 IN FLOW TIME STEP     1 STRESS PERIOD     2
      2 TOTAL ITERATIONS
     1 CALLS TO GCG PACKAGE FOR TRANSPORT TIME STEP   172 IN FLOW TIME STEP     1 STRESS PERIOD     2
      2 TOTAL ITERATIONS
     1 CALLS TO GCG PACKAGE FOR TRANSPORT TIME STEP   173 IN FLOW TIME STEP     1 STRESS PERIOD     2
      2 TOTAL ITERATIONS



 >>>>>>>>>>>>>>>>>>>>>>>>>>>>>>>>>>>>>>>>>>>>>>>>>>>>>>>FOR COMPONENT NO. 01<<<<<<<<<<<<<<<<<<<<<<<<<<<<<<<<<<<<<<<<<<<<<<<<<<<<<<<


                                            -------------------------------------------
                                                      TRANSPORT STEP NO.  173
                                            -------------------------------------------

 TOTAL ELAPSED TIME SINCE BEGINNING OF SIMULATION =   5380.800    S   
 .....................................................................

 TOTAL PARTICLES USED IN THE CURRENT STEP =      1492
 PARTICLES ADDED AT BEGINNING OF THE STEP =        42
 PARTICLES REMOVED AT END OF LAST STEP    =        96

                     CUMULATIVE MASS BUDGETS AT END OF TRANSPORT STEP  173, TIME STEP    1, STRESS PERIOD    2
                     -----------------------------------------------------------------------------------------

                                                             IN                           OUT
                                                      ----------------             ----------------
                               CONSTANT CONCENTRATION:    12.61073                   -2.224658    
                                        CONSTANT HEAD:    0.000000                   -7.878236    
                               1ST/0TH ORDER REACTION:    0.000000                    0.000000    
                               MASS STOR (FLOW MODEL):    0.000000                    0.000000    
                                MASS STORAGE (SOLUTE):    16.12568                   -16.47675    
                                MASS STORAGE (SORBED):    34.40145                   -35.15041    
                            ---------------------------------------------------------------------------
                                              [TOTAL]:    63.13786     KG            -61.73005     KG  

                                                          NET (IN - OUT):    1.407810    
                                                   DISCREPANCY (PERCENT):    2.254879    
     1 CALLS TO GCG PACKAGE FOR TRANSPORT TIME STEP   174 IN FLOW TIME STEP     1 STRESS PERIOD     2
      2 TOTAL ITERATIONS
     1 CALLS TO GCG PACKAGE FOR TRANSPORT TIME STEP   175 IN FLOW TIME STEP     1 STRESS PERIOD     2
      2 TOTAL ITERATIONS
     1 CALLS TO GCG PACKAGE FOR TRANSPORT TIME STEP   176 IN FLOW TIME STEP     1 STRESS PERIOD     2
      2 TOTAL ITERATIONS



 >>>>>>>>>>>>>>>>>>>>>>>>>>>>>>>>>>>>>>>>>>>>>>>>>>>>>>>FOR COMPONENT NO. 01<<<<<<<<<<<<<<<<<<<<<<<<<<<<<<<<<<<<<<<<<<<<<<<<<<<<<<<


                                            -------------------------------------------
                                                      TRANSPORT STEP NO.  176
                                            -------------------------------------------

 TOTAL ELAPSED TIME SINCE BEGINNING OF SIMULATION =   5472.000    S   
 .....................................................................

 TOTAL PARTICLES USED IN THE CURRENT STEP =      1512
 PARTICLES ADDED AT BEGINNING OF THE STEP =        10
 PARTICLES REMOVED AT END OF LAST STEP    =         0

                     CUMULATIVE MASS BUDGETS AT END OF TRANSPORT STEP  176, TIME STEP    1, STRESS PERIOD    2
                     -----------------------------------------------------------------------------------------

                                                             IN                           OUT
                                                      ----------------             ----------------
                               CONSTANT CONCENTRATION:    12.61073                   -2.224658    
                                        CONSTANT HEAD:    0.000000                   -8.044080    
                               1ST/0TH ORDER REACTION:    0.000000                    0.000000    
                               MASS STOR (FLOW MODEL):    0.000000                    0.000000    
                                MASS STORAGE (SOLUTE):    16.18013                   -16.47675    
                                MASS STORAGE (SORBED):    34.51763                   -35.15041    
                            ---------------------------------------------------------------------------
                                              [TOTAL]:    63.30849     KG            -61.89590     KG  

                                                          NET (IN - OUT):    1.412598    
                                                   DISCREPANCY (PERCENT):    2.256467    
     1 CALLS TO GCG PACKAGE FOR TRANSPORT TIME STEP   177 IN FLOW TIME STEP     1 STRESS PERIOD     2
      2 TOTAL ITERATIONS
     1 CALLS TO GCG PACKAGE FOR TRANSPORT TIME STEP   178 IN FLOW TIME STEP     1 STRESS PERIOD     2
      2 TOTAL ITERATIONS
     1 CALLS TO GCG PACKAGE FOR TRANSPORT TIME STEP   179 IN FLOW TIME STEP     1 STRESS PERIOD     2
      2 TOTAL ITERATIONS



 >>>>>>>>>>>>>>>>>>>>>>>>>>>>>>>>>>>>>>>>>>>>>>>>>>>>>>>FOR COMPONENT NO. 01<<<<<<<<<<<<<<<<<<<<<<<<<<<<<<<<<<<<<<<<<<<<<<<<<<<<<<<


                                            -------------------------------------------
                                                      TRANSPORT STEP NO.  179
                                            -------------------------------------------

 TOTAL ELAPSED TIME SINCE BEGINNING OF SIMULATION =   5563.200    S   
 .....................................................................

 TOTAL PARTICLES USED IN THE CURRENT STEP =      1468
 PARTICLES ADDED AT BEGINNING OF THE STEP =        10
 PARTICLES REMOVED AT END OF LAST STEP    =         0

                     CUMULATIVE MASS BUDGETS AT END OF TRANSPORT STEP  179, TIME STEP    1, STRESS PERIOD    2
                     -----------------------------------------------------------------------------------------

                                                             IN                           OUT
                                                      ----------------             ----------------
                               CONSTANT CONCENTRATION:    12.61073                   -2.224658    
                                        CONSTANT HEAD:    0.000000                   -8.188228    
                               1ST/0TH ORDER REACTION:    0.000000                    0.000000    
                               MASS STOR (FLOW MODEL):    0.000000                    0.000000    
                                MASS STORAGE (SOLUTE):    16.22701                   -16.47675    
                                MASS STORAGE (SORBED):    34.61764                   -35.15041    
                            ---------------------------------------------------------------------------
                                              [TOTAL]:    63.45538     KG            -62.04005     KG  

                                                          NET (IN - OUT):    1.415337    
                                                   DISCREPANCY (PERCENT):    2.255599    
     1 CALLS TO GCG PACKAGE FOR TRANSPORT TIME STEP   180 IN FLOW TIME STEP     1 STRESS PERIOD     2
      2 TOTAL ITERATIONS
     1 CALLS TO GCG PACKAGE FOR TRANSPORT TIME STEP   181 IN FLOW TIME STEP     1 STRESS PERIOD     2
      2 TOTAL ITERATIONS
     1 CALLS TO GCG PACKAGE FOR TRANSPORT TIME STEP   182 IN FLOW TIME STEP     1 STRESS PERIOD     2
      2 TOTAL ITERATIONS



 >>>>>>>>>>>>>>>>>>>>>>>>>>>>>>>>>>>>>>>>>>>>>>>>>>>>>>>FOR COMPONENT NO. 01<<<<<<<<<<<<<<<<<<<<<<<<<<<<<<<<<<<<<<<<<<<<<<<<<<<<<<<


                                            -------------------------------------------
                                                      TRANSPORT STEP NO.  182
                                            -------------------------------------------

 TOTAL ELAPSED TIME SINCE BEGINNING OF SIMULATION =   5654.400    S   
 .....................................................................

 TOTAL PARTICLES USED IN THE CURRENT STEP =      1424
 PARTICLES ADDED AT BEGINNING OF THE STEP =        10
 PARTICLES REMOVED AT END OF LAST STEP    =         0

                     CUMULATIVE MASS BUDGETS AT END OF TRANSPORT STEP  182, TIME STEP    1, STRESS PERIOD    2
                     -----------------------------------------------------------------------------------------

                                                             IN                           OUT
                                                      ----------------             ----------------
                               CONSTANT CONCENTRATION:    12.61073                   -2.224658    
                                        CONSTANT HEAD:    0.000000                   -8.311978    
                               1ST/0TH ORDER REACTION:    0.000000                    0.000000    
                               MASS STOR (FLOW MODEL):    0.000000                    0.000000    
                                MASS STORAGE (SOLUTE):    16.26792                   -16.47675    
                                MASS STORAGE (SORBED):    34.70490                   -35.15041    
                            ---------------------------------------------------------------------------
                                              [TOTAL]:    63.58354     KG            -62.16380     KG  

                                                          NET (IN - OUT):    1.419746    
                                                   DISCREPANCY (PERCENT):    2.258094    
     1 CALLS TO GCG PACKAGE FOR TRANSPORT TIME STEP   183 IN FLOW TIME STEP     1 STRESS PERIOD     2
      2 TOTAL ITERATIONS
     1 CALLS TO GCG PACKAGE FOR TRANSPORT TIME STEP   184 IN FLOW TIME STEP     1 STRESS PERIOD     2
      2 TOTAL ITERATIONS
     1 CALLS TO GCG PACKAGE FOR TRANSPORT TIME STEP   185 IN FLOW TIME STEP     1 STRESS PERIOD     2
      2 TOTAL ITERATIONS



 >>>>>>>>>>>>>>>>>>>>>>>>>>>>>>>>>>>>>>>>>>>>>>>>>>>>>>>FOR COMPONENT NO. 01<<<<<<<<<<<<<<<<<<<<<<<<<<<<<<<<<<<<<<<<<<<<<<<<<<<<<<<


                                            -------------------------------------------
                                                      TRANSPORT STEP NO.  185
                                            -------------------------------------------

 TOTAL ELAPSED TIME SINCE BEGINNING OF SIMULATION =   5745.600    S   
 .....................................................................

 TOTAL PARTICLES USED IN THE CURRENT STEP =      1380
 PARTICLES ADDED AT BEGINNING OF THE STEP =        42
 PARTICLES REMOVED AT END OF LAST STEP    =        96

                     CUMULATIVE MASS BUDGETS AT END OF TRANSPORT STEP  185, TIME STEP    1, STRESS PERIOD    2
                     -----------------------------------------------------------------------------------------

                                                             IN                           OUT
                                                      ----------------             ----------------
                               CONSTANT CONCENTRATION:    12.61073                   -2.224658    
                                        CONSTANT HEAD:    0.000000                   -8.418128    
                               1ST/0TH ORDER REACTION:    0.000000                    0.000000    
                               MASS STOR (FLOW MODEL):    0.000000                    0.000000    
                                MASS STORAGE (SOLUTE):    16.30296                   -16.47675    
                                MASS STORAGE (SORBED):    34.77965                   -35.15041    
                            ---------------------------------------------------------------------------
                                              [TOTAL]:    63.69334     KG            -62.26994     KG  

                                                          NET (IN - OUT):    1.423393    
                                                   DISCREPANCY (PERCENT):    2.260013    
     1 CALLS TO GCG PACKAGE FOR TRANSPORT TIME STEP   186 IN FLOW TIME STEP     1 STRESS PERIOD     2
      2 TOTAL ITERATIONS
     1 CALLS TO GCG PACKAGE FOR TRANSPORT TIME STEP   187 IN FLOW TIME STEP     1 STRESS PERIOD     2
      2 TOTAL ITERATIONS
     1 CALLS TO GCG PACKAGE FOR TRANSPORT TIME STEP   188 IN FLOW TIME STEP     1 STRESS PERIOD     2
      2 TOTAL ITERATIONS



 >>>>>>>>>>>>>>>>>>>>>>>>>>>>>>>>>>>>>>>>>>>>>>>>>>>>>>>FOR COMPONENT NO. 01<<<<<<<<<<<<<<<<<<<<<<<<<<<<<<<<<<<<<<<<<<<<<<<<<<<<<<<


                                            -------------------------------------------
                                                      TRANSPORT STEP NO.  188
                                            -------------------------------------------

 TOTAL ELAPSED TIME SINCE BEGINNING OF SIMULATION =   5836.800    S   
 .....................................................................

 TOTAL PARTICLES USED IN THE CURRENT STEP =      1400
 PARTICLES ADDED AT BEGINNING OF THE STEP =        10
 PARTICLES REMOVED AT END OF LAST STEP    =         0

                     CUMULATIVE MASS BUDGETS AT END OF TRANSPORT STEP  188, TIME STEP    1, STRESS PERIOD    2
                     -----------------------------------------------------------------------------------------

                                                             IN                           OUT
                                                      ----------------             ----------------
                               CONSTANT CONCENTRATION:    12.61073                   -2.224658    
                                        CONSTANT HEAD:    0.000000                   -8.508503    
                               1ST/0TH ORDER REACTION:    0.000000                    0.000000    
                               MASS STOR (FLOW MODEL):    0.000000                    0.000000    
                                MASS STORAGE (SOLUTE):    16.33281                   -16.47675    
                                MASS STORAGE (SORBED):    34.84333                   -35.15041    
                            ---------------------------------------------------------------------------
                                              [TOTAL]:    63.78688     KG            -62.36032     KG  

                                                          NET (IN - OUT):    1.426559    
                                                   DISCREPANCY (PERCENT):    2.261738    
     1 CALLS TO GCG PACKAGE FOR TRANSPORT TIME STEP   189 IN FLOW TIME STEP     1 STRESS PERIOD     2
      2 TOTAL ITERATIONS
     1 CALLS TO GCG PACKAGE FOR TRANSPORT TIME STEP   190 IN FLOW TIME STEP     1 STRESS PERIOD     2
      2 TOTAL ITERATIONS
     1 CALLS TO GCG PACKAGE FOR TRANSPORT TIME STEP   191 IN FLOW TIME STEP     1 STRESS PERIOD     2
      2 TOTAL ITERATIONS



 >>>>>>>>>>>>>>>>>>>>>>>>>>>>>>>>>>>>>>>>>>>>>>>>>>>>>>>FOR COMPONENT NO. 01<<<<<<<<<<<<<<<<<<<<<<<<<<<<<<<<<<<<<<<<<<<<<<<<<<<<<<<


                                            -------------------------------------------
                                                      TRANSPORT STEP NO.  191
                                            -------------------------------------------

 TOTAL ELAPSED TIME SINCE BEGINNING OF SIMULATION =   5928.000    S   
 .....................................................................

 TOTAL PARTICLES USED IN THE CURRENT STEP =      1356
 PARTICLES ADDED AT BEGINNING OF THE STEP =        10
 PARTICLES REMOVED AT END OF LAST STEP    =         0

                     CUMULATIVE MASS BUDGETS AT END OF TRANSPORT STEP  191, TIME STEP    1, STRESS PERIOD    2
                     -----------------------------------------------------------------------------------------

                                                             IN                           OUT
                                                      ----------------             ----------------
                               CONSTANT CONCENTRATION:    12.61073                   -2.224658    
                                        CONSTANT HEAD:    0.000000                   -8.585047    
                               1ST/0TH ORDER REACTION:    0.000000                    0.000000    
                               MASS STOR (FLOW MODEL):    0.000000                    0.000000    
                                MASS STORAGE (SOLUTE):    16.35782                   -16.47675    
                                MASS STORAGE (SORBED):    34.89668                   -35.15041    
                            ---------------------------------------------------------------------------
                                              [TOTAL]:    63.86523     KG            -62.43686     KG  

                                                          NET (IN - OUT):    1.428364    
                                                   DISCREPANCY (PERCENT):    2.261821    
     1 CALLS TO GCG PACKAGE FOR TRANSPORT TIME STEP   192 IN FLOW TIME STEP     1 STRESS PERIOD     2
      2 TOTAL ITERATIONS
     1 CALLS TO GCG PACKAGE FOR TRANSPORT TIME STEP   193 IN FLOW TIME STEP     1 STRESS PERIOD     2
      2 TOTAL ITERATIONS
     1 CALLS TO GCG PACKAGE FOR TRANSPORT TIME STEP   194 IN FLOW TIME STEP     1 STRESS PERIOD     2
      2 TOTAL ITERATIONS



 >>>>>>>>>>>>>>>>>>>>>>>>>>>>>>>>>>>>>>>>>>>>>>>>>>>>>>>FOR COMPONENT NO. 01<<<<<<<<<<<<<<<<<<<<<<<<<<<<<<<<<<<<<<<<<<<<<<<<<<<<<<<


                                            -------------------------------------------
                                                      TRANSPORT STEP NO.  194
                                            -------------------------------------------

 TOTAL ELAPSED TIME SINCE BEGINNING OF SIMULATION =   6019.200    S   
 .....................................................................

 TOTAL PARTICLES USED IN THE CURRENT STEP =      1312
 PARTICLES ADDED AT BEGINNING OF THE STEP =        10
 PARTICLES REMOVED AT END OF LAST STEP    =         0

                     CUMULATIVE MASS BUDGETS AT END OF TRANSPORT STEP  194, TIME STEP    1, STRESS PERIOD    2
                     -----------------------------------------------------------------------------------------

                                                             IN                           OUT
                                                      ----------------             ----------------
                               CONSTANT CONCENTRATION:    12.61073                   -2.224658    
                                        CONSTANT HEAD:    0.000000                   -8.649109    
                               1ST/0TH ORDER REACTION:    0.000000                    0.000000    
                               MASS STOR (FLOW MODEL):    0.000000                    0.000000    
                                MASS STORAGE (SOLUTE):    16.37913                   -16.47675    
                                MASS STORAGE (SORBED):    34.94215                   -35.15041    
                            ---------------------------------------------------------------------------
                                              [TOTAL]:    63.93201     KG            -62.50093     KG  

                                                          NET (IN - OUT):    1.431084    
                                                   DISCREPANCY (PERCENT):    2.263783    
     1 CALLS TO GCG PACKAGE FOR TRANSPORT TIME STEP   195 IN FLOW TIME STEP     1 STRESS PERIOD     2
      2 TOTAL ITERATIONS
     1 CALLS TO GCG PACKAGE FOR TRANSPORT TIME STEP   196 IN FLOW TIME STEP     1 STRESS PERIOD     2
      2 TOTAL ITERATIONS
     1 CALLS TO GCG PACKAGE FOR TRANSPORT TIME STEP   197 IN FLOW TIME STEP     1 STRESS PERIOD     2
      2 TOTAL ITERATIONS



 >>>>>>>>>>>>>>>>>>>>>>>>>>>>>>>>>>>>>>>>>>>>>>>>>>>>>>>FOR COMPONENT NO. 01<<<<<<<<<<<<<<<<<<<<<<<<<<<<<<<<<<<<<<<<<<<<<<<<<<<<<<<


                                            -------------------------------------------
                                                      TRANSPORT STEP NO.  197
                                            -------------------------------------------

 TOTAL ELAPSED TIME SINCE BEGINNING OF SIMULATION =   6110.400    S   
 .....................................................................

 TOTAL PARTICLES USED IN THE CURRENT STEP =      1268
 PARTICLES ADDED AT BEGINNING OF THE STEP =        42
 PARTICLES REMOVED AT END OF LAST STEP    =        96

                     CUMULATIVE MASS BUDGETS AT END OF TRANSPORT STEP  197, TIME STEP    1, STRESS PERIOD    2
                     -----------------------------------------------------------------------------------------

                                                             IN                           OUT
                                                      ----------------             ----------------
                               CONSTANT CONCENTRATION:    12.61073                   -2.224658    
                                        CONSTANT HEAD:    0.000000                   -8.702799    
                               1ST/0TH ORDER REACTION:    0.000000                    0.000000    
                               MASS STOR (FLOW MODEL):    0.000000                    0.000000    
                                MASS STORAGE (SOLUTE):    16.39689                   -16.47675    
                                MASS STORAGE (SORBED):    34.98004                   -35.15041    
                            ---------------------------------------------------------------------------
                                              [TOTAL]:    63.98766     KG            -62.55462     KG  

                                                          NET (IN - OUT):    1.433048    
                                                   DISCREPANCY (PERCENT):    2.264932    
     1 CALLS TO GCG PACKAGE FOR TRANSPORT TIME STEP   198 IN FLOW TIME STEP     1 STRESS PERIOD     2
      2 TOTAL ITERATIONS
     1 CALLS TO GCG PACKAGE FOR TRANSPORT TIME STEP   199 IN FLOW TIME STEP     1 STRESS PERIOD     2
      2 TOTAL ITERATIONS
     1 CALLS TO GCG PACKAGE FOR TRANSPORT TIME STEP   200 IN FLOW TIME STEP     1 STRESS PERIOD     2
      2 TOTAL ITERATIONS



 >>>>>>>>>>>>>>>>>>>>>>>>>>>>>>>>>>>>>>>>>>>>>>>>>>>>>>>FOR COMPONENT NO. 01<<<<<<<<<<<<<<<<<<<<<<<<<<<<<<<<<<<<<<<<<<<<<<<<<<<<<<<


                                            -------------------------------------------
                                                      TRANSPORT STEP NO.  200
                                            -------------------------------------------

 TOTAL ELAPSED TIME SINCE BEGINNING OF SIMULATION =   6201.600    S   
 .....................................................................

 TOTAL PARTICLES USED IN THE CURRENT STEP =      1288
 PARTICLES ADDED AT BEGINNING OF THE STEP =        10
 PARTICLES REMOVED AT END OF LAST STEP    =         0

                     CUMULATIVE MASS BUDGETS AT END OF TRANSPORT STEP  200, TIME STEP    1, STRESS PERIOD    2
                     -----------------------------------------------------------------------------------------

                                                             IN                           OUT
                                                      ----------------             ----------------
                               CONSTANT CONCENTRATION:    12.61073                   -2.224658    
                                        CONSTANT HEAD:    0.000000                   -8.747510    
                               1ST/0TH ORDER REACTION:    0.000000                    0.000000    
                               MASS STOR (FLOW MODEL):    0.000000                    0.000000    
                                MASS STORAGE (SOLUTE):    16.41176                   -16.47675    
                                MASS STORAGE (SORBED):    35.01175                   -35.15041    
                            ---------------------------------------------------------------------------
                                              [TOTAL]:    64.03425     KG            -62.59933     KG  

                                                          NET (IN - OUT):    1.434921    
                                                   DISCREPANCY (PERCENT):    2.266257    
     1 CALLS TO GCG PACKAGE FOR TRANSPORT TIME STEP   201 IN FLOW TIME STEP     1 STRESS PERIOD     2
      2 TOTAL ITERATIONS
     1 CALLS TO GCG PACKAGE FOR TRANSPORT TIME STEP   202 IN FLOW TIME STEP     1 STRESS PERIOD     2
      2 TOTAL ITERATIONS
     1 CALLS TO GCG PACKAGE FOR TRANSPORT TIME STEP   203 IN FLOW TIME STEP     1 STRESS PERIOD     2
      2 TOTAL ITERATIONS



 >>>>>>>>>>>>>>>>>>>>>>>>>>>>>>>>>>>>>>>>>>>>>>>>>>>>>>>FOR COMPONENT NO. 01<<<<<<<<<<<<<<<<<<<<<<<<<<<<<<<<<<<<<<<<<<<<<<<<<<<<<<<


                                            -------------------------------------------
                                                      TRANSPORT STEP NO.  203
                                            -------------------------------------------

 TOTAL ELAPSED TIME SINCE BEGINNING OF SIMULATION =   6292.800    S   
 .....................................................................

 TOTAL PARTICLES USED IN THE CURRENT STEP =      1244
 PARTICLES ADDED AT BEGINNING OF THE STEP =        10
 PARTICLES REMOVED AT END OF LAST STEP    =         0

                     CUMULATIVE MASS BUDGETS AT END OF TRANSPORT STEP  203, TIME STEP    1, STRESS PERIOD    2
                     -----------------------------------------------------------------------------------------

                                                             IN                           OUT
                                                      ----------------             ----------------
                               CONSTANT CONCENTRATION:    12.61073                   -2.224658    
                                        CONSTANT HEAD:    0.000000                   -8.784595    
                               1ST/0TH ORDER REACTION:    0.000000                    0.000000    
                               MASS STOR (FLOW MODEL):    0.000000                    0.000000    
                                MASS STORAGE (SOLUTE):    16.42385                   -16.47675    
                                MASS STORAGE (SORBED):    35.03754                   -35.15041    
                            ---------------------------------------------------------------------------
                                              [TOTAL]:    64.07211     KG            -62.63641     KG  

                                                          NET (IN - OUT):    1.435699    
                                                   DISCREPANCY (PERCENT):    2.266145    
     1 CALLS TO GCG PACKAGE FOR TRANSPORT TIME STEP   204 IN FLOW TIME STEP     1 STRESS PERIOD     2
      2 TOTAL ITERATIONS
     1 CALLS TO GCG PACKAGE FOR TRANSPORT TIME STEP   205 IN FLOW TIME STEP     1 STRESS PERIOD     2
      2 TOTAL ITERATIONS
     1 CALLS TO GCG PACKAGE FOR TRANSPORT TIME STEP   206 IN FLOW TIME STEP     1 STRESS PERIOD     2
      2 TOTAL ITERATIONS



 >>>>>>>>>>>>>>>>>>>>>>>>>>>>>>>>>>>>>>>>>>>>>>>>>>>>>>>FOR COMPONENT NO. 01<<<<<<<<<<<<<<<<<<<<<<<<<<<<<<<<<<<<<<<<<<<<<<<<<<<<<<<


                                            -------------------------------------------
                                                      TRANSPORT STEP NO.  206
                                            -------------------------------------------

 TOTAL ELAPSED TIME SINCE BEGINNING OF SIMULATION =   6384.000    S   
 .....................................................................

 TOTAL PARTICLES USED IN THE CURRENT STEP =      1200
 PARTICLES ADDED AT BEGINNING OF THE STEP =        10
 PARTICLES REMOVED AT END OF LAST STEP    =         0

                     CUMULATIVE MASS BUDGETS AT END OF TRANSPORT STEP  206, TIME STEP    1, STRESS PERIOD    2
                     -----------------------------------------------------------------------------------------

                                                             IN                           OUT
                                                      ----------------             ----------------
                               CONSTANT CONCENTRATION:    12.61073                   -2.224658    
                                        CONSTANT HEAD:    0.000000                   -8.814998    
                               1ST/0TH ORDER REACTION:    0.000000                    0.000000    
                               MASS STOR (FLOW MODEL):    0.000000                    0.000000    
                                MASS STORAGE (SOLUTE):    16.43395                   -16.47675    
                                MASS STORAGE (SORBED):    35.05908                   -35.15041    
                            ---------------------------------------------------------------------------
                                              [TOTAL]:    64.10376     KG            -62.66682     KG  

                                                          NET (IN - OUT):    1.436943    
                                                   DISCREPANCY (PERCENT):    2.266998    
     1 CALLS TO GCG PACKAGE FOR TRANSPORT TIME STEP   207 IN FLOW TIME STEP     1 STRESS PERIOD     2
      2 TOTAL ITERATIONS
     1 CALLS TO GCG PACKAGE FOR TRANSPORT TIME STEP   208 IN FLOW TIME STEP     1 STRESS PERIOD     2
      2 TOTAL ITERATIONS
     1 CALLS TO GCG PACKAGE FOR TRANSPORT TIME STEP   209 IN FLOW TIME STEP     1 STRESS PERIOD     2
      2 TOTAL ITERATIONS



 >>>>>>>>>>>>>>>>>>>>>>>>>>>>>>>>>>>>>>>>>>>>>>>>>>>>>>>FOR COMPONENT NO. 01<<<<<<<<<<<<<<<<<<<<<<<<<<<<<<<<<<<<<<<<<<<<<<<<<<<<<<<


                                            -------------------------------------------
                                                      TRANSPORT STEP NO.  209
                                            -------------------------------------------

 TOTAL ELAPSED TIME SINCE BEGINNING OF SIMULATION =   6475.200    S   
 .....................................................................

 TOTAL PARTICLES USED IN THE CURRENT STEP =      1156
 PARTICLES ADDED AT BEGINNING OF THE STEP =        42
 PARTICLES REMOVED AT END OF LAST STEP    =        96

                     CUMULATIVE MASS BUDGETS AT END OF TRANSPORT STEP  209, TIME STEP    1, STRESS PERIOD    2
                     -----------------------------------------------------------------------------------------

                                                             IN                           OUT
                                                      ----------------             ----------------
                               CONSTANT CONCENTRATION:    12.61073                   -2.224658    
                                        CONSTANT HEAD:    0.000000                   -8.840000    
                               1ST/0TH ORDER REACTION:    0.000000                    0.000000    
                               MASS STOR (FLOW MODEL):    0.000000                    0.000000    
                                MASS STORAGE (SOLUTE):    16.44215                   -16.47675    
                                MASS STORAGE (SORBED):    35.07658                   -35.15041    
                            ---------------------------------------------------------------------------
                                              [TOTAL]:    64.12946     KG            -62.69182     KG  

                                                          NET (IN - OUT):    1.437637    
                                                   DISCREPANCY (PERCENT):    2.267186    
     1 CALLS TO GCG PACKAGE FOR TRANSPORT TIME STEP   210 IN FLOW TIME STEP     1 STRESS PERIOD     2
      2 TOTAL ITERATIONS
     1 CALLS TO GCG PACKAGE FOR TRANSPORT TIME STEP   211 IN FLOW TIME STEP     1 STRESS PERIOD     2
      2 TOTAL ITERATIONS
     1 CALLS TO GCG PACKAGE FOR TRANSPORT TIME STEP   212 IN FLOW TIME STEP     1 STRESS PERIOD     2
      2 TOTAL ITERATIONS



 >>>>>>>>>>>>>>>>>>>>>>>>>>>>>>>>>>>>>>>>>>>>>>>>>>>>>>>FOR COMPONENT NO. 01<<<<<<<<<<<<<<<<<<<<<<<<<<<<<<<<<<<<<<<<<<<<<<<<<<<<<<<


                                            -------------------------------------------
                                                      TRANSPORT STEP NO.  212
                                            -------------------------------------------

 TOTAL ELAPSED TIME SINCE BEGINNING OF SIMULATION =   6566.400    S   
 .....................................................................

 TOTAL PARTICLES USED IN THE CURRENT STEP =      1176
 PARTICLES ADDED AT BEGINNING OF THE STEP =        10
 PARTICLES REMOVED AT END OF LAST STEP    =         0

                     CUMULATIVE MASS BUDGETS AT END OF TRANSPORT STEP  212, TIME STEP    1, STRESS PERIOD    2
                     -----------------------------------------------------------------------------------------

                                                             IN                           OUT
                                                      ----------------             ----------------
                               CONSTANT CONCENTRATION:    12.61073                   -2.224658    
                                        CONSTANT HEAD:    0.000000                   -8.860445    
                               1ST/0TH ORDER REACTION:    0.000000                    0.000000    
                               MASS STOR (FLOW MODEL):    0.000000                    0.000000    
                                MASS STORAGE (SOLUTE):    16.44899                   -16.47675    
                                MASS STORAGE (SORBED):    35.09116                   -35.15041    
                            ---------------------------------------------------------------------------
                                              [TOTAL]:    64.15089     KG            -62.71226     KG  

                                                          NET (IN - OUT):    1.438625    
                                                   DISCREPANCY (PERCENT):    2.267996    
     1 CALLS TO GCG PACKAGE FOR TRANSPORT TIME STEP   213 IN FLOW TIME STEP     1 STRESS PERIOD     2
      2 TOTAL ITERATIONS
     1 CALLS TO GCG PACKAGE FOR TRANSPORT TIME STEP   214 IN FLOW TIME STEP     1 STRESS PERIOD     2
      2 TOTAL ITERATIONS
     1 CALLS TO GCG PACKAGE FOR TRANSPORT TIME STEP   215 IN FLOW TIME STEP     1 STRESS PERIOD     2
      2 TOTAL ITERATIONS



 >>>>>>>>>>>>>>>>>>>>>>>>>>>>>>>>>>>>>>>>>>>>>>>>>>>>>>>FOR COMPONENT NO. 01<<<<<<<<<<<<<<<<<<<<<<<<<<<<<<<<<<<<<<<<<<<<<<<<<<<<<<<


                                            -------------------------------------------
                                                      TRANSPORT STEP NO.  215
                                            -------------------------------------------

 TOTAL ELAPSED TIME SINCE BEGINNING OF SIMULATION =   6657.600    S   
 .....................................................................

 TOTAL PARTICLES USED IN THE CURRENT STEP =      1132
 PARTICLES ADDED AT BEGINNING OF THE STEP =        10
 PARTICLES REMOVED AT END OF LAST STEP    =         0

                     CUMULATIVE MASS BUDGETS AT END OF TRANSPORT STEP  215, TIME STEP    1, STRESS PERIOD    2
                     -----------------------------------------------------------------------------------------

                                                             IN                           OUT
                                                      ----------------             ----------------
                               CONSTANT CONCENTRATION:    12.61073                   -2.224658    
                                        CONSTANT HEAD:    0.000000                   -8.877106    
                               1ST/0TH ORDER REACTION:    0.000000                    0.000000    
                               MASS STOR (FLOW MODEL):    0.000000                    0.000000    
                                MASS STORAGE (SOLUTE):    16.45435                   -16.47675    
                                MASS STORAGE (SORBED):    35.10260                   -35.15041    
                            ---------------------------------------------------------------------------
                                              [TOTAL]:    64.16769     KG            -62.72892     KG  

                                                          NET (IN - OUT):    1.438763    
                                                   DISCREPANCY (PERCENT):    2.267614    
     1 CALLS TO GCG PACKAGE FOR TRANSPORT TIME STEP   216 IN FLOW TIME STEP     1 STRESS PERIOD     2
      2 TOTAL ITERATIONS
     1 CALLS TO GCG PACKAGE FOR TRANSPORT TIME STEP   217 IN FLOW TIME STEP     1 STRESS PERIOD     2
      2 TOTAL ITERATIONS
     1 CALLS TO GCG PACKAGE FOR TRANSPORT TIME STEP   218 IN FLOW TIME STEP     1 STRESS PERIOD     2
      2 TOTAL ITERATIONS



 >>>>>>>>>>>>>>>>>>>>>>>>>>>>>>>>>>>>>>>>>>>>>>>>>>>>>>>FOR COMPONENT NO. 01<<<<<<<<<<<<<<<<<<<<<<<<<<<<<<<<<<<<<<<<<<<<<<<<<<<<<<<


                                            -------------------------------------------
                                                      TRANSPORT STEP NO.  218
                                            -------------------------------------------

 TOTAL ELAPSED TIME SINCE BEGINNING OF SIMULATION =   6748.800    S   
 .....................................................................

 TOTAL PARTICLES USED IN THE CURRENT STEP =      1088
 PARTICLES ADDED AT BEGINNING OF THE STEP =        10
 PARTICLES REMOVED AT END OF LAST STEP    =         0

                     CUMULATIVE MASS BUDGETS AT END OF TRANSPORT STEP  218, TIME STEP    1, STRESS PERIOD    2
                     -----------------------------------------------------------------------------------------

                                                             IN                           OUT
                                                      ----------------             ----------------
                               CONSTANT CONCENTRATION:    12.61073                   -2.224658    
                                        CONSTANT HEAD:    0.000000                   -8.890528    
                               1ST/0TH ORDER REACTION:    0.000000                    0.000000    
                               MASS STOR (FLOW MODEL):    0.000000                    0.000000    
                                MASS STORAGE (SOLUTE):    16.45885                   -16.47675    
                                MASS STORAGE (SORBED):    35.11221                   -35.15041    
                            ---------------------------------------------------------------------------
                                              [TOTAL]:    64.18179     KG            -62.74234     KG  

                                                          NET (IN - OUT):    1.439449    
                                                   DISCREPANCY (PERCENT):    2.268204    
     1 CALLS TO GCG PACKAGE FOR TRANSPORT TIME STEP   219 IN FLOW TIME STEP     1 STRESS PERIOD     2
      2 TOTAL ITERATIONS
     1 CALLS TO GCG PACKAGE FOR TRANSPORT TIME STEP   220 IN FLOW TIME STEP     1 STRESS PERIOD     2
      2 TOTAL ITERATIONS
     1 CALLS TO GCG PACKAGE FOR TRANSPORT TIME STEP   221 IN FLOW TIME STEP     1 STRESS PERIOD     2
      2 TOTAL ITERATIONS



 >>>>>>>>>>>>>>>>>>>>>>>>>>>>>>>>>>>>>>>>>>>>>>>>>>>>>>>FOR COMPONENT NO. 01<<<<<<<<<<<<<<<<<<<<<<<<<<<<<<<<<<<<<<<<<<<<<<<<<<<<<<<


                                            -------------------------------------------
                                                      TRANSPORT STEP NO.  221
                                            -------------------------------------------

 TOTAL ELAPSED TIME SINCE BEGINNING OF SIMULATION =   6840.000    S   
 .....................................................................

 TOTAL PARTICLES USED IN THE CURRENT STEP =      1036
 PARTICLES ADDED AT BEGINNING OF THE STEP =        42
 PARTICLES REMOVED AT END OF LAST STEP    =       104

                     CUMULATIVE MASS BUDGETS AT END OF TRANSPORT STEP  221, TIME STEP    1, STRESS PERIOD    2
                     -----------------------------------------------------------------------------------------

                                                             IN                           OUT
                                                      ----------------             ----------------
                               CONSTANT CONCENTRATION:    12.61073                   -2.224658    
                                        CONSTANT HEAD:    0.000000                   -8.901356    
                               1ST/0TH ORDER REACTION:    0.000000                    0.000000    
                               MASS STOR (FLOW MODEL):    0.000000                    0.000000    
                                MASS STORAGE (SOLUTE):    16.46252                   -16.47675    
                                MASS STORAGE (SORBED):    35.12003                   -35.15041    
                            ---------------------------------------------------------------------------
                                              [TOTAL]:    64.19328     KG            -62.75317     KG  

                                                          NET (IN - OUT):    1.440102    
                                                   DISCREPANCY (PERCENT):    2.268833    
     1 CALLS TO GCG PACKAGE FOR TRANSPORT TIME STEP   222 IN FLOW TIME STEP     1 STRESS PERIOD     2
      2 TOTAL ITERATIONS
     1 CALLS TO GCG PACKAGE FOR TRANSPORT TIME STEP   223 IN FLOW TIME STEP     1 STRESS PERIOD     2
      2 TOTAL ITERATIONS
     1 CALLS TO GCG PACKAGE FOR TRANSPORT TIME STEP   224 IN FLOW TIME STEP     1 STRESS PERIOD     2
      2 TOTAL ITERATIONS



 >>>>>>>>>>>>>>>>>>>>>>>>>>>>>>>>>>>>>>>>>>>>>>>>>>>>>>>FOR COMPONENT NO. 01<<<<<<<<<<<<<<<<<<<<<<<<<<<<<<<<<<<<<<<<<<<<<<<<<<<<<<<


                                            -------------------------------------------
                                                      TRANSPORT STEP NO.  224
                                            -------------------------------------------

 TOTAL ELAPSED TIME SINCE BEGINNING OF SIMULATION =   6931.200    S   
 .....................................................................

 TOTAL PARTICLES USED IN THE CURRENT STEP =      1056
 PARTICLES ADDED AT BEGINNING OF THE STEP =        10
 PARTICLES REMOVED AT END OF LAST STEP    =         0

                     CUMULATIVE MASS BUDGETS AT END OF TRANSPORT STEP  224, TIME STEP    1, STRESS PERIOD    2
                     -----------------------------------------------------------------------------------------

                                                             IN                           OUT
                                                      ----------------             ----------------
                               CONSTANT CONCENTRATION:    12.61073                   -2.224658    
                                        CONSTANT HEAD:    0.000000                   -8.910094    
                               1ST/0TH ORDER REACTION:    0.000000                    0.000000    
                               MASS STOR (FLOW MODEL):    0.000000                    0.000000    
                                MASS STORAGE (SOLUTE):    16.46542                   -16.47675    
                                MASS STORAGE (SORBED):    35.12621                   -35.15041    
                            ---------------------------------------------------------------------------
                                              [TOTAL]:    64.20236     KG            -62.76191     KG  

                                                          NET (IN - OUT):    1.440453    
                                                   DISCREPANCY (PERCENT):    2.269068    
     1 CALLS TO GCG PACKAGE FOR TRANSPORT TIME STEP   225 IN FLOW TIME STEP     1 STRESS PERIOD     2
      2 TOTAL ITERATIONS
     1 CALLS TO GCG PACKAGE FOR TRANSPORT TIME STEP   226 IN FLOW TIME STEP     1 STRESS PERIOD     2
      2 TOTAL ITERATIONS
     1 CALLS TO GCG PACKAGE FOR TRANSPORT TIME STEP   227 IN FLOW TIME STEP     1 STRESS PERIOD     2
      2 TOTAL ITERATIONS



 >>>>>>>>>>>>>>>>>>>>>>>>>>>>>>>>>>>>>>>>>>>>>>>>>>>>>>>FOR COMPONENT NO. 01<<<<<<<<<<<<<<<<<<<<<<<<<<<<<<<<<<<<<<<<<<<<<<<<<<<<<<<


                                            -------------------------------------------
                                                      TRANSPORT STEP NO.  227
                                            -------------------------------------------

 TOTAL ELAPSED TIME SINCE BEGINNING OF SIMULATION =   7022.400    S   
 .....................................................................

 TOTAL PARTICLES USED IN THE CURRENT STEP =      1026
 PARTICLES ADDED AT BEGINNING OF THE STEP =        10
 PARTICLES REMOVED AT END OF LAST STEP    =         0

                     CUMULATIVE MASS BUDGETS AT END OF TRANSPORT STEP  227, TIME STEP    1, STRESS PERIOD    2
                     -----------------------------------------------------------------------------------------

                                                             IN                           OUT
                                                      ----------------             ----------------
                               CONSTANT CONCENTRATION:    12.61073                   -2.224658    
                                        CONSTANT HEAD:    0.000000                   -8.917159    
                               1ST/0TH ORDER REACTION:    0.000000                    0.000000    
                               MASS STOR (FLOW MODEL):    0.000000                    0.000000    
                                MASS STORAGE (SOLUTE):    16.46777                   -16.47675    
                                MASS STORAGE (SORBED):    35.13123                   -35.15041    
                            ---------------------------------------------------------------------------
                                              [TOTAL]:    64.20972     KG            -62.76897     KG  

                                                          NET (IN - OUT):    1.440750    
                                                   DISCREPANCY (PERCENT):    2.269279    
     1 CALLS TO GCG PACKAGE FOR TRANSPORT TIME STEP   228 IN FLOW TIME STEP     1 STRESS PERIOD     2
      2 TOTAL ITERATIONS
     1 CALLS TO GCG PACKAGE FOR TRANSPORT TIME STEP   229 IN FLOW TIME STEP     1 STRESS PERIOD     2
      2 TOTAL ITERATIONS
     1 CALLS TO GCG PACKAGE FOR TRANSPORT TIME STEP   230 IN FLOW TIME STEP     1 STRESS PERIOD     2
      2 TOTAL ITERATIONS



 >>>>>>>>>>>>>>>>>>>>>>>>>>>>>>>>>>>>>>>>>>>>>>>>>>>>>>>FOR COMPONENT NO. 01<<<<<<<<<<<<<<<<<<<<<<<<<<<<<<<<<<<<<<<<<<<<<<<<<<<<<<<


                                            -------------------------------------------
                                                      TRANSPORT STEP NO.  230
                                            -------------------------------------------

 TOTAL ELAPSED TIME SINCE BEGINNING OF SIMULATION =   7113.600    S   
 .....................................................................

 TOTAL PARTICLES USED IN THE CURRENT STEP =      1046
 PARTICLES ADDED AT BEGINNING OF THE STEP =        10
 PARTICLES REMOVED AT END OF LAST STEP    =         0

                     CUMULATIVE MASS BUDGETS AT END OF TRANSPORT STEP  230, TIME STEP    1, STRESS PERIOD    2
                     -----------------------------------------------------------------------------------------

                                                             IN                           OUT
                                                      ----------------             ----------------
                               CONSTANT CONCENTRATION:    12.61073                   -2.224658    
                                        CONSTANT HEAD:    0.000000                   -8.922823    
                               1ST/0TH ORDER REACTION:    0.000000                    0.000000    
                               MASS STOR (FLOW MODEL):    0.000000                    0.000000    
                                MASS STORAGE (SOLUTE):    16.46965                   -16.47675    
                                MASS STORAGE (SORBED):    35.13524                   -35.15041    
                            ---------------------------------------------------------------------------
                                              [TOTAL]:    64.21563     KG            -62.77464     KG  

                                                          NET (IN - OUT):    1.440990    
                                                   DISCREPANCY (PERCENT):    2.269450    
     1 CALLS TO GCG PACKAGE FOR TRANSPORT TIME STEP   231 IN FLOW TIME STEP     1 STRESS PERIOD     2
      2 TOTAL ITERATIONS
     1 CALLS TO GCG PACKAGE FOR TRANSPORT TIME STEP   232 IN FLOW TIME STEP     1 STRESS PERIOD     2
      2 TOTAL ITERATIONS
     1 CALLS TO GCG PACKAGE FOR TRANSPORT TIME STEP   233 IN FLOW TIME STEP     1 STRESS PERIOD     2
      2 TOTAL ITERATIONS



 >>>>>>>>>>>>>>>>>>>>>>>>>>>>>>>>>>>>>>>>>>>>>>>>>>>>>>>FOR COMPONENT NO. 01<<<<<<<<<<<<<<<<<<<<<<<<<<<<<<<<<<<<<<<<<<<<<<<<<<<<<<<


                                            -------------------------------------------
                                                      TRANSPORT STEP NO.  233
                                            -------------------------------------------

 TOTAL ELAPSED TIME SINCE BEGINNING OF SIMULATION =   7204.800    S   
 .....................................................................

 TOTAL PARTICLES USED IN THE CURRENT STEP =      1016
 PARTICLES ADDED AT BEGINNING OF THE STEP =        42
 PARTICLES REMOVED AT END OF LAST STEP    =        82

                     CUMULATIVE MASS BUDGETS AT END OF TRANSPORT STEP  233, TIME STEP    1, STRESS PERIOD    2
                     -----------------------------------------------------------------------------------------

                                                             IN                           OUT
                                                      ----------------             ----------------
                               CONSTANT CONCENTRATION:    12.61073                   -2.224658    
                                        CONSTANT HEAD:    0.000000                   -8.927358    
                               1ST/0TH ORDER REACTION:    0.000000                    0.000000    
                               MASS STOR (FLOW MODEL):    0.000000                    0.000000    
                                MASS STORAGE (SOLUTE):    16.47116                   -16.47675    
                                MASS STORAGE (SORBED):    35.13845                   -35.15041    
                            ---------------------------------------------------------------------------
                                              [TOTAL]:    64.22034     KG            -62.77917     KG  

                                                          NET (IN - OUT):    1.441162    
                                                   DISCREPANCY (PERCENT):    2.269555    
     1 CALLS TO GCG PACKAGE FOR TRANSPORT TIME STEP   234 IN FLOW TIME STEP     1 STRESS PERIOD     2
      2 TOTAL ITERATIONS
     1 CALLS TO GCG PACKAGE FOR TRANSPORT TIME STEP   235 IN FLOW TIME STEP     1 STRESS PERIOD     2
      2 TOTAL ITERATIONS
     1 CALLS TO GCG PACKAGE FOR TRANSPORT TIME STEP   236 IN FLOW TIME STEP     1 STRESS PERIOD     2
      2 TOTAL ITERATIONS



 >>>>>>>>>>>>>>>>>>>>>>>>>>>>>>>>>>>>>>>>>>>>>>>>>>>>>>>FOR COMPONENT NO. 01<<<<<<<<<<<<<<<<<<<<<<<<<<<<<<<<<<<<<<<<<<<<<<<<<<<<<<<


                                            -------------------------------------------
                                                      TRANSPORT STEP NO.  236
                                            -------------------------------------------

 TOTAL ELAPSED TIME SINCE BEGINNING OF SIMULATION =   7296.000    S   
 .....................................................................

 TOTAL PARTICLES USED IN THE CURRENT STEP =      1036
 PARTICLES ADDED AT BEGINNING OF THE STEP =        10
 PARTICLES REMOVED AT END OF LAST STEP    =         0

                     CUMULATIVE MASS BUDGETS AT END OF TRANSPORT STEP  236, TIME STEP    1, STRESS PERIOD    2
                     -----------------------------------------------------------------------------------------

                                                             IN                           OUT
                                                      ----------------             ----------------
                               CONSTANT CONCENTRATION:    12.61073                   -2.224658    
                                        CONSTANT HEAD:    0.000000                   -8.930954    
                               1ST/0TH ORDER REACTION:    0.000000                    0.000000    
                               MASS STOR (FLOW MODEL):    0.000000                    0.000000    
                                MASS STORAGE (SOLUTE):    16.47236                   -16.47675    
                                MASS STORAGE (SORBED):    35.14101                   -35.15041    
                            ---------------------------------------------------------------------------
                                              [TOTAL]:    64.22411     KG            -62.78277     KG  

                                                          NET (IN - OUT):    1.441334    
                                                   DISCREPANCY (PERCENT):    2.269694    
     1 CALLS TO GCG PACKAGE FOR TRANSPORT TIME STEP   237 IN FLOW TIME STEP     1 STRESS PERIOD     2
      2 TOTAL ITERATIONS
     1 CALLS TO GCG PACKAGE FOR TRANSPORT TIME STEP   238 IN FLOW TIME STEP     1 STRESS PERIOD     2
      2 TOTAL ITERATIONS
     1 CALLS TO GCG PACKAGE FOR TRANSPORT TIME STEP   239 IN FLOW TIME STEP     1 STRESS PERIOD     2
      2 TOTAL ITERATIONS



 >>>>>>>>>>>>>>>>>>>>>>>>>>>>>>>>>>>>>>>>>>>>>>>>>>>>>>>FOR COMPONENT NO. 01<<<<<<<<<<<<<<<<<<<<<<<<<<<<<<<<<<<<<<<<<<<<<<<<<<<<<<<


                                            -------------------------------------------
                                                      TRANSPORT STEP NO.  239
                                            -------------------------------------------

 TOTAL ELAPSED TIME SINCE BEGINNING OF SIMULATION =   7387.200    S   
 .....................................................................

 TOTAL PARTICLES USED IN THE CURRENT STEP =      1056
 PARTICLES ADDED AT BEGINNING OF THE STEP =        10
 PARTICLES REMOVED AT END OF LAST STEP    =         0

                     CUMULATIVE MASS BUDGETS AT END OF TRANSPORT STEP  239, TIME STEP    1, STRESS PERIOD    2
                     -----------------------------------------------------------------------------------------

                                                             IN                           OUT
                                                      ----------------             ----------------
                               CONSTANT CONCENTRATION:    12.61073                   -2.224658    
                                        CONSTANT HEAD:    0.000000                   -8.933810    
                               1ST/0TH ORDER REACTION:    0.000000                    0.000000    
                               MASS STOR (FLOW MODEL):    0.000000                    0.000000    
                                MASS STORAGE (SOLUTE):    16.47331                   -16.47675    
                                MASS STORAGE (SORBED):    35.14304                   -35.15041    
                            ---------------------------------------------------------------------------
                                              [TOTAL]:    64.22708     KG            -62.78563     KG  

                                                          NET (IN - OUT):    1.441452    
                                                   DISCREPANCY (PERCENT):    2.269776    
     1 CALLS TO GCG PACKAGE FOR TRANSPORT TIME STEP   240 IN FLOW TIME STEP     1 STRESS PERIOD     2
      2 TOTAL ITERATIONS
     1 CALLS TO GCG PACKAGE FOR TRANSPORT TIME STEP   241 IN FLOW TIME STEP     1 STRESS PERIOD     2
      2 TOTAL ITERATIONS
     1 CALLS TO GCG PACKAGE FOR TRANSPORT TIME STEP   242 IN FLOW TIME STEP     1 STRESS PERIOD     2
      2 TOTAL ITERATIONS



 >>>>>>>>>>>>>>>>>>>>>>>>>>>>>>>>>>>>>>>>>>>>>>>>>>>>>>>FOR COMPONENT NO. 01<<<<<<<<<<<<<<<<<<<<<<<<<<<<<<<<<<<<<<<<<<<<<<<<<<<<<<<


                                            -------------------------------------------
                                                      TRANSPORT STEP NO.  242
                                            -------------------------------------------

 TOTAL ELAPSED TIME SINCE BEGINNING OF SIMULATION =   7478.400    S   
 .....................................................................

 TOTAL PARTICLES USED IN THE CURRENT STEP =      1026
 PARTICLES ADDED AT BEGINNING OF THE STEP =        10
 PARTICLES REMOVED AT END OF LAST STEP    =         0

                     CUMULATIVE MASS BUDGETS AT END OF TRANSPORT STEP  242, TIME STEP    1, STRESS PERIOD    2
                     -----------------------------------------------------------------------------------------

                                                             IN                           OUT
                                                      ----------------             ----------------
                               CONSTANT CONCENTRATION:    12.61073                   -2.224658    
                                        CONSTANT HEAD:    0.000000                   -8.936066    
                               1ST/0TH ORDER REACTION:    0.000000                    0.000000    
                               MASS STOR (FLOW MODEL):    0.000000                    0.000000    
                                MASS STORAGE (SOLUTE):    16.47406                   -16.47675    
                                MASS STORAGE (SORBED):    35.14465                   -35.15041    
                            ---------------------------------------------------------------------------
                                              [TOTAL]:    64.22944     KG            -62.78788     KG  

                                                          NET (IN - OUT):    1.441555    
                                                   DISCREPANCY (PERCENT):    2.269856    
     1 CALLS TO GCG PACKAGE FOR TRANSPORT TIME STEP   243 IN FLOW TIME STEP     1 STRESS PERIOD     2
      2 TOTAL ITERATIONS
     1 CALLS TO GCG PACKAGE FOR TRANSPORT TIME STEP   244 IN FLOW TIME STEP     1 STRESS PERIOD     2
      2 TOTAL ITERATIONS
     1 CALLS TO GCG PACKAGE FOR TRANSPORT TIME STEP   245 IN FLOW TIME STEP     1 STRESS PERIOD     2
      2 TOTAL ITERATIONS



 >>>>>>>>>>>>>>>>>>>>>>>>>>>>>>>>>>>>>>>>>>>>>>>>>>>>>>>FOR COMPONENT NO. 01<<<<<<<<<<<<<<<<<<<<<<<<<<<<<<<<<<<<<<<<<<<<<<<<<<<<<<<


                                            -------------------------------------------
                                                      TRANSPORT STEP NO.  245
                                            -------------------------------------------

 TOTAL ELAPSED TIME SINCE BEGINNING OF SIMULATION =   7569.600    S   
 .....................................................................

 TOTAL PARTICLES USED IN THE CURRENT STEP =      1046
 PARTICLES ADDED AT BEGINNING OF THE STEP =        10
 PARTICLES REMOVED AT END OF LAST STEP    =         0

                     CUMULATIVE MASS BUDGETS AT END OF TRANSPORT STEP  245, TIME STEP    1, STRESS PERIOD    2
                     -----------------------------------------------------------------------------------------

                                                             IN                           OUT
                                                      ----------------             ----------------
                               CONSTANT CONCENTRATION:    12.61073                   -2.224658    
                                        CONSTANT HEAD:    0.000000                   -8.937841    
                               1ST/0TH ORDER REACTION:    0.000000                    0.000000    
                               MASS STOR (FLOW MODEL):    0.000000                    0.000000    
                                MASS STORAGE (SOLUTE):    16.47465                   -16.47675    
                                MASS STORAGE (SORBED):    35.14591                   -35.15041    
                            ---------------------------------------------------------------------------
                                              [TOTAL]:    64.23130     KG            -62.78966     KG  

                                                          NET (IN - OUT):    1.441643    
                                                   DISCREPANCY (PERCENT):    2.269929    
     1 CALLS TO GCG PACKAGE FOR TRANSPORT TIME STEP   246 IN FLOW TIME STEP     1 STRESS PERIOD     2
      2 TOTAL ITERATIONS
     1 CALLS TO GCG PACKAGE FOR TRANSPORT TIME STEP   247 IN FLOW TIME STEP     1 STRESS PERIOD     2
      2 TOTAL ITERATIONS
     1 CALLS TO GCG PACKAGE FOR TRANSPORT TIME STEP   248 IN FLOW TIME STEP     1 STRESS PERIOD     2
      2 TOTAL ITERATIONS



 >>>>>>>>>>>>>>>>>>>>>>>>>>>>>>>>>>>>>>>>>>>>>>>>>>>>>>>FOR COMPONENT NO. 01<<<<<<<<<<<<<<<<<<<<<<<<<<<<<<<<<<<<<<<<<<<<<<<<<<<<<<<


                                            -------------------------------------------
                                                      TRANSPORT STEP NO.  248
                                            -------------------------------------------

 TOTAL ELAPSED TIME SINCE BEGINNING OF SIMULATION =   7660.800    S   
 .....................................................................

 TOTAL PARTICLES USED IN THE CURRENT STEP =      1016
 PARTICLES ADDED AT BEGINNING OF THE STEP =        42
 PARTICLES REMOVED AT END OF LAST STEP    =        82

                     CUMULATIVE MASS BUDGETS AT END OF TRANSPORT STEP  248, TIME STEP    1, STRESS PERIOD    2
                     -----------------------------------------------------------------------------------------

                                                             IN                           OUT
                                                      ----------------             ----------------
                               CONSTANT CONCENTRATION:    12.61073                   -2.224658    
                                        CONSTANT HEAD:    0.000000                   -8.939240    
                               1ST/0TH ORDER REACTION:    0.000000                    0.000000    
                               MASS STOR (FLOW MODEL):    0.000000                    0.000000    
                                MASS STORAGE (SOLUTE):    16.47512                   -16.47675    
                                MASS STORAGE (SORBED):    35.14690                   -35.15041    
                            ---------------------------------------------------------------------------
                                              [TOTAL]:    64.23276     KG            -62.79106     KG  

                                                          NET (IN - OUT):    1.441700    
                                                   DISCREPANCY (PERCENT):    2.269968    
     1 CALLS TO GCG PACKAGE FOR TRANSPORT TIME STEP   249 IN FLOW TIME STEP     1 STRESS PERIOD     2
      2 TOTAL ITERATIONS
     1 CALLS TO GCG PACKAGE FOR TRANSPORT TIME STEP   250 IN FLOW TIME STEP     1 STRESS PERIOD     2
      2 TOTAL ITERATIONS
     1 CALLS TO GCG PACKAGE FOR TRANSPORT TIME STEP   251 IN FLOW TIME STEP     1 STRESS PERIOD     2
      2 TOTAL ITERATIONS



 >>>>>>>>>>>>>>>>>>>>>>>>>>>>>>>>>>>>>>>>>>>>>>>>>>>>>>>FOR COMPONENT NO. 01<<<<<<<<<<<<<<<<<<<<<<<<<<<<<<<<<<<<<<<<<<<<<<<<<<<<<<<


                                            -------------------------------------------
                                                      TRANSPORT STEP NO.  251
                                            -------------------------------------------

 TOTAL ELAPSED TIME SINCE BEGINNING OF SIMULATION =   7752.000    S   
 .....................................................................

 TOTAL PARTICLES USED IN THE CURRENT STEP =      1036
 PARTICLES ADDED AT BEGINNING OF THE STEP =        10
 PARTICLES REMOVED AT END OF LAST STEP    =         0

                     CUMULATIVE MASS BUDGETS AT END OF TRANSPORT STEP  251, TIME STEP    1, STRESS PERIOD    2
                     -----------------------------------------------------------------------------------------

                                                             IN                           OUT
                                                      ----------------             ----------------
                               CONSTANT CONCENTRATION:    12.61073                   -2.224658    
                                        CONSTANT HEAD:    0.000000                   -8.940334    
                               1ST/0TH ORDER REACTION:    0.000000                    0.000000    
                               MASS STOR (FLOW MODEL):    0.000000                    0.000000    
                                MASS STORAGE (SOLUTE):    16.47548                   -16.47675    
                                MASS STORAGE (SORBED):    35.14769                   -35.15041    
                            ---------------------------------------------------------------------------
                                              [TOTAL]:    64.23391     KG            -62.79215     KG  

                                                          NET (IN - OUT):    1.441757    
                                                   DISCREPANCY (PERCENT):    2.270018    
     1 CALLS TO GCG PACKAGE FOR TRANSPORT TIME STEP   252 IN FLOW TIME STEP     1 STRESS PERIOD     2
      2 TOTAL ITERATIONS
     1 CALLS TO GCG PACKAGE FOR TRANSPORT TIME STEP   253 IN FLOW TIME STEP     1 STRESS PERIOD     2
      2 TOTAL ITERATIONS
     1 CALLS TO GCG PACKAGE FOR TRANSPORT TIME STEP   254 IN FLOW TIME STEP     1 STRESS PERIOD     2
      2 TOTAL ITERATIONS



 >>>>>>>>>>>>>>>>>>>>>>>>>>>>>>>>>>>>>>>>>>>>>>>>>>>>>>>FOR COMPONENT NO. 01<<<<<<<<<<<<<<<<<<<<<<<<<<<<<<<<<<<<<<<<<<<<<<<<<<<<<<<


                                            -------------------------------------------
                                                      TRANSPORT STEP NO.  254
                                            -------------------------------------------

 TOTAL ELAPSED TIME SINCE BEGINNING OF SIMULATION =   7843.200    S   
 .....................................................................

 TOTAL PARTICLES USED IN THE CURRENT STEP =      1056
 PARTICLES ADDED AT BEGINNING OF THE STEP =        10
 PARTICLES REMOVED AT END OF LAST STEP    =         0

                     CUMULATIVE MASS BUDGETS AT END OF TRANSPORT STEP  254, TIME STEP    1, STRESS PERIOD    2
                     -----------------------------------------------------------------------------------------

                                                             IN                           OUT
                                                      ----------------             ----------------
                               CONSTANT CONCENTRATION:    12.61073                   -2.224658    
                                        CONSTANT HEAD:    0.000000                   -8.941192    
                               1ST/0TH ORDER REACTION:    0.000000                    0.000000    
                               MASS STOR (FLOW MODEL):    0.000000                    0.000000    
                                MASS STORAGE (SOLUTE):    16.47577                   -16.47675    
                                MASS STORAGE (SORBED):    35.14830                   -35.15041    
                            ---------------------------------------------------------------------------
                                              [TOTAL]:    64.23480     KG            -62.79301     KG  

                                                          NET (IN - OUT):    1.441795    
                                                   DISCREPANCY (PERCENT):    2.270047    
     1 CALLS TO GCG PACKAGE FOR TRANSPORT TIME STEP   255 IN FLOW TIME STEP     1 STRESS PERIOD     2
      2 TOTAL ITERATIONS
     1 CALLS TO GCG PACKAGE FOR TRANSPORT TIME STEP   256 IN FLOW TIME STEP     1 STRESS PERIOD     2
      2 TOTAL ITERATIONS
     1 CALLS TO GCG PACKAGE FOR TRANSPORT TIME STEP   257 IN FLOW TIME STEP     1 STRESS PERIOD     2
      2 TOTAL ITERATIONS



 >>>>>>>>>>>>>>>>>>>>>>>>>>>>>>>>>>>>>>>>>>>>>>>>>>>>>>>FOR COMPONENT NO. 01<<<<<<<<<<<<<<<<<<<<<<<<<<<<<<<<<<<<<<<<<<<<<<<<<<<<<<<


                                            -------------------------------------------
                                                      TRANSPORT STEP NO.  257
                                            -------------------------------------------

 TOTAL ELAPSED TIME SINCE BEGINNING OF SIMULATION =   7934.400    S   
 .....................................................................

 TOTAL PARTICLES USED IN THE CURRENT STEP =      1026
 PARTICLES ADDED AT BEGINNING OF THE STEP =        10
 PARTICLES REMOVED AT END OF LAST STEP    =         0

                     CUMULATIVE MASS BUDGETS AT END OF TRANSPORT STEP  257, TIME STEP    1, STRESS PERIOD    2
                     -----------------------------------------------------------------------------------------

                                                             IN                           OUT
                                                      ----------------             ----------------
                               CONSTANT CONCENTRATION:    12.61073                   -2.224658    
                                        CONSTANT HEAD:    0.000000                   -8.941859    
                               1ST/0TH ORDER REACTION:    0.000000                    0.000000    
                               MASS STOR (FLOW MODEL):    0.000000                    0.000000    
                                MASS STORAGE (SOLUTE):    16.47599                   -16.47675    
                                MASS STORAGE (SORBED):    35.14878                   -35.15041    
                            ---------------------------------------------------------------------------
                                              [TOTAL]:    64.23550     KG            -62.79368     KG  

                                                          NET (IN - OUT):    1.441826    
                                                   DISCREPANCY (PERCENT):    2.270070    
     1 CALLS TO GCG PACKAGE FOR TRANSPORT TIME STEP   258 IN FLOW TIME STEP     1 STRESS PERIOD     2
      2 TOTAL ITERATIONS
     1 CALLS TO GCG PACKAGE FOR TRANSPORT TIME STEP   259 IN FLOW TIME STEP     1 STRESS PERIOD     2
      2 TOTAL ITERATIONS
     1 CALLS TO GCG PACKAGE FOR TRANSPORT TIME STEP   260 IN FLOW TIME STEP     1 STRESS PERIOD     2
      2 TOTAL ITERATIONS



 >>>>>>>>>>>>>>>>>>>>>>>>>>>>>>>>>>>>>>>>>>>>>>>>>>>>>>>FOR COMPONENT NO. 01<<<<<<<<<<<<<<<<<<<<<<<<<<<<<<<<<<<<<<<<<<<<<<<<<<<<<<<


                                            -------------------------------------------
                                                      TRANSPORT STEP NO.  260
                                            -------------------------------------------

 TOTAL ELAPSED TIME SINCE BEGINNING OF SIMULATION =   8025.600    S   
 .....................................................................

 TOTAL PARTICLES USED IN THE CURRENT STEP =      1046
 PARTICLES ADDED AT BEGINNING OF THE STEP =        10
 PARTICLES REMOVED AT END OF LAST STEP    =         0

                     CUMULATIVE MASS BUDGETS AT END OF TRANSPORT STEP  260, TIME STEP    1, STRESS PERIOD    2
                     -----------------------------------------------------------------------------------------

                                                             IN                           OUT
                                                      ----------------             ----------------
                               CONSTANT CONCENTRATION:    12.61073                   -2.224658    
                                        CONSTANT HEAD:    0.000000                   -8.942380    
                               1ST/0TH ORDER REACTION:    0.000000                    0.000000    
                               MASS STOR (FLOW MODEL):    0.000000                    0.000000    
                                MASS STORAGE (SOLUTE):    16.47617                   -16.47675    
                                MASS STORAGE (SORBED):    35.14915                   -35.15041    
                            ---------------------------------------------------------------------------
                                              [TOTAL]:    64.23605     KG            -62.79420     KG  

                                                          NET (IN - OUT):    1.441856    
                                                   DISCREPANCY (PERCENT):    2.270099    
     1 CALLS TO GCG PACKAGE FOR TRANSPORT TIME STEP   261 IN FLOW TIME STEP     1 STRESS PERIOD     2
      2 TOTAL ITERATIONS
     1 CALLS TO GCG PACKAGE FOR TRANSPORT TIME STEP   262 IN FLOW TIME STEP     1 STRESS PERIOD     2
      2 TOTAL ITERATIONS
     1 CALLS TO GCG PACKAGE FOR TRANSPORT TIME STEP   263 IN FLOW TIME STEP     1 STRESS PERIOD     2
      2 TOTAL ITERATIONS



 >>>>>>>>>>>>>>>>>>>>>>>>>>>>>>>>>>>>>>>>>>>>>>>>>>>>>>>FOR COMPONENT NO. 01<<<<<<<<<<<<<<<<<<<<<<<<<<<<<<<<<<<<<<<<<<<<<<<<<<<<<<<


                                            -------------------------------------------
                                                      TRANSPORT STEP NO.  263
                                            -------------------------------------------

 TOTAL ELAPSED TIME SINCE BEGINNING OF SIMULATION =   8116.800    S   
 .....................................................................

 TOTAL PARTICLES USED IN THE CURRENT STEP =      1016
 PARTICLES ADDED AT BEGINNING OF THE STEP =        42
 PARTICLES REMOVED AT END OF LAST STEP    =        82

                     CUMULATIVE MASS BUDGETS AT END OF TRANSPORT STEP  263, TIME STEP    1, STRESS PERIOD    2
                     -----------------------------------------------------------------------------------------

                                                             IN                           OUT
                                                      ----------------             ----------------
                               CONSTANT CONCENTRATION:    12.61073                   -2.224658    
                                        CONSTANT HEAD:    0.000000                   -8.942785    
                               1ST/0TH ORDER REACTION:    0.000000                    0.000000    
                               MASS STOR (FLOW MODEL):    0.000000                    0.000000    
                                MASS STORAGE (SOLUTE):    16.47630                   -16.47675    
                                MASS STORAGE (SORBED):    35.14944                   -35.15041    
                            ---------------------------------------------------------------------------
                                              [TOTAL]:    64.23647     KG            -62.79460     KG  

                                                          NET (IN - OUT):    1.441872    
                                                   DISCREPANCY (PERCENT):    2.270108    
     1 CALLS TO GCG PACKAGE FOR TRANSPORT TIME STEP   264 IN FLOW TIME STEP     1 STRESS PERIOD     2
      2 TOTAL ITERATIONS
     1 CALLS TO GCG PACKAGE FOR TRANSPORT TIME STEP   265 IN FLOW TIME STEP     1 STRESS PERIOD     2
      2 TOTAL ITERATIONS
     1 CALLS TO GCG PACKAGE FOR TRANSPORT TIME STEP   266 IN FLOW TIME STEP     1 STRESS PERIOD     2
      2 TOTAL ITERATIONS



 >>>>>>>>>>>>>>>>>>>>>>>>>>>>>>>>>>>>>>>>>>>>>>>>>>>>>>>FOR COMPONENT NO. 01<<<<<<<<<<<<<<<<<<<<<<<<<<<<<<<<<<<<<<<<<<<<<<<<<<<<<<<


                                            -------------------------------------------
                                                      TRANSPORT STEP NO.  266
                                            -------------------------------------------

 TOTAL ELAPSED TIME SINCE BEGINNING OF SIMULATION =   8208.000    S   
 .....................................................................

 TOTAL PARTICLES USED IN THE CURRENT STEP =      1036
 PARTICLES ADDED AT BEGINNING OF THE STEP =        10
 PARTICLES REMOVED AT END OF LAST STEP    =         0

                     CUMULATIVE MASS BUDGETS AT END OF TRANSPORT STEP  266, TIME STEP    1, STRESS PERIOD    2
                     -----------------------------------------------------------------------------------------

                                                             IN                           OUT
                                                      ----------------             ----------------
                               CONSTANT CONCENTRATION:    12.61073                   -2.224658    
                                        CONSTANT HEAD:    0.000000                   -8.943099    
                               1ST/0TH ORDER REACTION:    0.000000                    0.000000    
                               MASS STOR (FLOW MODEL):    0.000000                    0.000000    
                                MASS STORAGE (SOLUTE):    16.47641                   -16.47675    
                                MASS STORAGE (SORBED):    35.14967                   -35.15041    
                            ---------------------------------------------------------------------------
                                              [TOTAL]:    64.23681     KG            -62.79491     KG  

                                                          NET (IN - OUT):    1.441895    
                                                   DISCREPANCY (PERCENT):    2.270133    
     1 CALLS TO GCG PACKAGE FOR TRANSPORT TIME STEP   267 IN FLOW TIME STEP     1 STRESS PERIOD     2
      2 TOTAL ITERATIONS
     1 CALLS TO GCG PACKAGE FOR TRANSPORT TIME STEP   268 IN FLOW TIME STEP     1 STRESS PERIOD     2
      2 TOTAL ITERATIONS
     1 CALLS TO GCG PACKAGE FOR TRANSPORT TIME STEP   269 IN FLOW TIME STEP     1 STRESS PERIOD     2
      2 TOTAL ITERATIONS



 >>>>>>>>>>>>>>>>>>>>>>>>>>>>>>>>>>>>>>>>>>>>>>>>>>>>>>>FOR COMPONENT NO. 01<<<<<<<<<<<<<<<<<<<<<<<<<<<<<<<<<<<<<<<<<<<<<<<<<<<<<<<


                                            -------------------------------------------
                                                      TRANSPORT STEP NO.  269
                                            -------------------------------------------

 TOTAL ELAPSED TIME SINCE BEGINNING OF SIMULATION =   8299.200    S   
 .....................................................................

 TOTAL PARTICLES USED IN THE CURRENT STEP =      1056
 PARTICLES ADDED AT BEGINNING OF THE STEP =        10
 PARTICLES REMOVED AT END OF LAST STEP    =         0

                     CUMULATIVE MASS BUDGETS AT END OF TRANSPORT STEP  269, TIME STEP    1, STRESS PERIOD    2
                     -----------------------------------------------------------------------------------------

                                                             IN                           OUT
                                                      ----------------             ----------------
                               CONSTANT CONCENTRATION:    12.61073                   -2.224658    
                                        CONSTANT HEAD:    0.000000                   -8.943342    
                               1ST/0TH ORDER REACTION:    0.000000                    0.000000    
                               MASS STOR (FLOW MODEL):    0.000000                    0.000000    
                                MASS STORAGE (SOLUTE):    16.47649                   -16.47675    
                                MASS STORAGE (SORBED):    35.14984                   -35.15041    
                            ---------------------------------------------------------------------------
                                              [TOTAL]:    64.23706     KG            -62.79516     KG  

                                                          NET (IN - OUT):    1.441902    
                                                   DISCREPANCY (PERCENT):    2.270136    
     1 CALLS TO GCG PACKAGE FOR TRANSPORT TIME STEP   270 IN FLOW TIME STEP     1 STRESS PERIOD     2
      2 TOTAL ITERATIONS
     1 CALLS TO GCG PACKAGE FOR TRANSPORT TIME STEP   271 IN FLOW TIME STEP     1 STRESS PERIOD     2
      2 TOTAL ITERATIONS
     1 CALLS TO GCG PACKAGE FOR TRANSPORT TIME STEP   272 IN FLOW TIME STEP     1 STRESS PERIOD     2
      2 TOTAL ITERATIONS



 >>>>>>>>>>>>>>>>>>>>>>>>>>>>>>>>>>>>>>>>>>>>>>>>>>>>>>>FOR COMPONENT NO. 01<<<<<<<<<<<<<<<<<<<<<<<<<<<<<<<<<<<<<<<<<<<<<<<<<<<<<<<


                                            -------------------------------------------
                                                      TRANSPORT STEP NO.  272
                                            -------------------------------------------

 TOTAL ELAPSED TIME SINCE BEGINNING OF SIMULATION =   8390.400    S   
 .....................................................................

 TOTAL PARTICLES USED IN THE CURRENT STEP =      1026
 PARTICLES ADDED AT BEGINNING OF THE STEP =        10
 PARTICLES REMOVED AT END OF LAST STEP    =         0

                     CUMULATIVE MASS BUDGETS AT END OF TRANSPORT STEP  272, TIME STEP    1, STRESS PERIOD    2
                     -----------------------------------------------------------------------------------------

                                                             IN                           OUT
                                                      ----------------             ----------------
                               CONSTANT CONCENTRATION:    12.61073                   -2.224658    
                                        CONSTANT HEAD:    0.000000                   -8.943530    
                               1ST/0TH ORDER REACTION:    0.000000                    0.000000    
                               MASS STOR (FLOW MODEL):    0.000000                    0.000000    
                                MASS STORAGE (SOLUTE):    16.47655                   -16.47675    
                                MASS STORAGE (SORBED):    35.14997                   -35.15041    
                            ---------------------------------------------------------------------------
                                              [TOTAL]:    64.23726     KG            -62.79535     KG  

                                                          NET (IN - OUT):    1.441910    
                                                   DISCREPANCY (PERCENT):    2.270141    
     1 CALLS TO GCG PACKAGE FOR TRANSPORT TIME STEP   273 IN FLOW TIME STEP     1 STRESS PERIOD     2
      2 TOTAL ITERATIONS
     1 CALLS TO GCG PACKAGE FOR TRANSPORT TIME STEP   274 IN FLOW TIME STEP     1 STRESS PERIOD     2
      2 TOTAL ITERATIONS
     1 CALLS TO GCG PACKAGE FOR TRANSPORT TIME STEP   275 IN FLOW TIME STEP     1 STRESS PERIOD     2
      2 TOTAL ITERATIONS



 >>>>>>>>>>>>>>>>>>>>>>>>>>>>>>>>>>>>>>>>>>>>>>>>>>>>>>>FOR COMPONENT NO. 01<<<<<<<<<<<<<<<<<<<<<<<<<<<<<<<<<<<<<<<<<<<<<<<<<<<<<<<


                                            -------------------------------------------
                                                      TRANSPORT STEP NO.  275
                                            -------------------------------------------

 TOTAL ELAPSED TIME SINCE BEGINNING OF SIMULATION =   8481.600    S   
 .....................................................................

 TOTAL PARTICLES USED IN THE CURRENT STEP =      1046
 PARTICLES ADDED AT BEGINNING OF THE STEP =        10
 PARTICLES REMOVED AT END OF LAST STEP    =         0

                     CUMULATIVE MASS BUDGETS AT END OF TRANSPORT STEP  275, TIME STEP    1, STRESS PERIOD    2
                     -----------------------------------------------------------------------------------------

                                                             IN                           OUT
                                                      ----------------             ----------------
                               CONSTANT CONCENTRATION:    12.61073                   -2.224658    
                                        CONSTANT HEAD:    0.000000                   -8.943674    
                               1ST/0TH ORDER REACTION:    0.000000                    0.000000    
                               MASS STOR (FLOW MODEL):    0.000000                    0.000000    
                                MASS STORAGE (SOLUTE):    16.47660                   -16.47675    
                                MASS STORAGE (SORBED):    35.15008                   -35.15041    
                            ---------------------------------------------------------------------------
                                              [TOTAL]:    64.23741     KG            -62.79549     KG  

                                                          NET (IN - OUT):    1.441921    
                                                   DISCREPANCY (PERCENT):    2.270154    
     1 CALLS TO GCG PACKAGE FOR TRANSPORT TIME STEP   276 IN FLOW TIME STEP     1 STRESS PERIOD     2
      2 TOTAL ITERATIONS
     1 CALLS TO GCG PACKAGE FOR TRANSPORT TIME STEP   277 IN FLOW TIME STEP     1 STRESS PERIOD     2
      2 TOTAL ITERATIONS
     1 CALLS TO GCG PACKAGE FOR TRANSPORT TIME STEP   278 IN FLOW TIME STEP     1 STRESS PERIOD     2
      2 TOTAL ITERATIONS



 >>>>>>>>>>>>>>>>>>>>>>>>>>>>>>>>>>>>>>>>>>>>>>>>>>>>>>>FOR COMPONENT NO. 01<<<<<<<<<<<<<<<<<<<<<<<<<<<<<<<<<<<<<<<<<<<<<<<<<<<<<<<


                                            -------------------------------------------
                                                      TRANSPORT STEP NO.  278
                                            -------------------------------------------

 TOTAL ELAPSED TIME SINCE BEGINNING OF SIMULATION =   8572.800    S   
 .....................................................................

 TOTAL PARTICLES USED IN THE CURRENT STEP =      1016
 PARTICLES ADDED AT BEGINNING OF THE STEP =        42
 PARTICLES REMOVED AT END OF LAST STEP    =        82

                     CUMULATIVE MASS BUDGETS AT END OF TRANSPORT STEP  278, TIME STEP    1, STRESS PERIOD    2
                     -----------------------------------------------------------------------------------------

                                                             IN                           OUT
                                                      ----------------             ----------------
                               CONSTANT CONCENTRATION:    12.61073                   -2.224658    
                                        CONSTANT HEAD:    0.000000                   -8.943786    
                               1ST/0TH ORDER REACTION:    0.000000                    0.000000    
                               MASS STOR (FLOW MODEL):    0.000000                    0.000000    
                                MASS STORAGE (SOLUTE):    16.47663                   -16.47675    
                                MASS STORAGE (SORBED):    35.15016                   -35.15041    
                            ---------------------------------------------------------------------------
                                              [TOTAL]:    64.23753     KG            -62.79560     KG  

                                                          NET (IN - OUT):    1.441925    
                                                   DISCREPANCY (PERCENT):    2.270156    
     1 CALLS TO GCG PACKAGE FOR TRANSPORT TIME STEP   279 IN FLOW TIME STEP     1 STRESS PERIOD     2
      2 TOTAL ITERATIONS
     1 CALLS TO GCG PACKAGE FOR TRANSPORT TIME STEP   280 IN FLOW TIME STEP     1 STRESS PERIOD     2
      2 TOTAL ITERATIONS
     1 CALLS TO GCG PACKAGE FOR TRANSPORT TIME STEP   281 IN FLOW TIME STEP     1 STRESS PERIOD     2
      2 TOTAL ITERATIONS



 >>>>>>>>>>>>>>>>>>>>>>>>>>>>>>>>>>>>>>>>>>>>>>>>>>>>>>>FOR COMPONENT NO. 01<<<<<<<<<<<<<<<<<<<<<<<<<<<<<<<<<<<<<<<<<<<<<<<<<<<<<<<


                                            -------------------------------------------
                                                      TRANSPORT STEP NO.  281
                                            -------------------------------------------

 TOTAL ELAPSED TIME SINCE BEGINNING OF SIMULATION =   8664.000    S   
 .....................................................................

 TOTAL PARTICLES USED IN THE CURRENT STEP =      1036
 PARTICLES ADDED AT BEGINNING OF THE STEP =        10
 PARTICLES REMOVED AT END OF LAST STEP    =         0

                     CUMULATIVE MASS BUDGETS AT END OF TRANSPORT STEP  281, TIME STEP    1, STRESS PERIOD    2
                     -----------------------------------------------------------------------------------------

                                                             IN                           OUT
                                                      ----------------             ----------------
                               CONSTANT CONCENTRATION:    12.61073                   -2.224658    
                                        CONSTANT HEAD:    0.000000                   -8.943871    
                               1ST/0TH ORDER REACTION:    0.000000                    0.000000    
                               MASS STOR (FLOW MODEL):    0.000000                    0.000000    
                                MASS STORAGE (SOLUTE):    16.47666                   -16.47675    
                                MASS STORAGE (SORBED):    35.15022                   -35.15041    
                            ---------------------------------------------------------------------------
                                              [TOTAL]:    64.23762     KG            -62.79569     KG  

                                                          NET (IN - OUT):    1.441929    
                                                   DISCREPANCY (PERCENT):    2.270159    
     1 CALLS TO GCG PACKAGE FOR TRANSPORT TIME STEP   282 IN FLOW TIME STEP     1 STRESS PERIOD     2
      2 TOTAL ITERATIONS
     1 CALLS TO GCG PACKAGE FOR TRANSPORT TIME STEP   283 IN FLOW TIME STEP     1 STRESS PERIOD     2
      2 TOTAL ITERATIONS
     1 CALLS TO GCG PACKAGE FOR TRANSPORT TIME STEP   284 IN FLOW TIME STEP     1 STRESS PERIOD     2
      2 TOTAL ITERATIONS



 >>>>>>>>>>>>>>>>>>>>>>>>>>>>>>>>>>>>>>>>>>>>>>>>>>>>>>>FOR COMPONENT NO. 01<<<<<<<<<<<<<<<<<<<<<<<<<<<<<<<<<<<<<<<<<<<<<<<<<<<<<<<


                                            -------------------------------------------
                                                      TRANSPORT STEP NO.  284
                                            -------------------------------------------

 TOTAL ELAPSED TIME SINCE BEGINNING OF SIMULATION =   8755.200    S   
 .....................................................................

 TOTAL PARTICLES USED IN THE CURRENT STEP =      1056
 PARTICLES ADDED AT BEGINNING OF THE STEP =        10
 PARTICLES REMOVED AT END OF LAST STEP    =         0

                     CUMULATIVE MASS BUDGETS AT END OF TRANSPORT STEP  284, TIME STEP    1, STRESS PERIOD    2
                     -----------------------------------------------------------------------------------------

                                                             IN                           OUT
                                                      ----------------             ----------------
                               CONSTANT CONCENTRATION:    12.61073                   -2.224658    
                                        CONSTANT HEAD:    0.000000                   -8.943938    
                               1ST/0TH ORDER REACTION:    0.000000                    0.000000    
                               MASS STOR (FLOW MODEL):    0.000000                    0.000000    
                                MASS STORAGE (SOLUTE):    16.47668                   -16.47675    
                                MASS STORAGE (SORBED):    35.15027                   -35.15041    
                            ---------------------------------------------------------------------------
                                              [TOTAL]:    64.23769     KG            -62.79575     KG  

                                                          NET (IN - OUT):    1.441933    
                                                   DISCREPANCY (PERCENT):    2.270162    
     1 CALLS TO GCG PACKAGE FOR TRANSPORT TIME STEP   285 IN FLOW TIME STEP     1 STRESS PERIOD     2
      2 TOTAL ITERATIONS
     1 CALLS TO GCG PACKAGE FOR TRANSPORT TIME STEP   286 IN FLOW TIME STEP     1 STRESS PERIOD     2
      2 TOTAL ITERATIONS
     1 CALLS TO GCG PACKAGE FOR TRANSPORT TIME STEP   287 IN FLOW TIME STEP     1 STRESS PERIOD     2
      2 TOTAL ITERATIONS



 >>>>>>>>>>>>>>>>>>>>>>>>>>>>>>>>>>>>>>>>>>>>>>>>>>>>>>>FOR COMPONENT NO. 01<<<<<<<<<<<<<<<<<<<<<<<<<<<<<<<<<<<<<<<<<<<<<<<<<<<<<<<


                                            -------------------------------------------
                                                      TRANSPORT STEP NO.  287
                                            -------------------------------------------

 TOTAL ELAPSED TIME SINCE BEGINNING OF SIMULATION =   8846.400    S   
 .....................................................................

 TOTAL PARTICLES USED IN THE CURRENT STEP =      1026
 PARTICLES ADDED AT BEGINNING OF THE STEP =        10
 PARTICLES REMOVED AT END OF LAST STEP    =         0

                     CUMULATIVE MASS BUDGETS AT END OF TRANSPORT STEP  287, TIME STEP    1, STRESS PERIOD    2
                     -----------------------------------------------------------------------------------------

                                                             IN                           OUT
                                                      ----------------             ----------------
                               CONSTANT CONCENTRATION:    12.61073                   -2.224658    
                                        CONSTANT HEAD:    0.000000                   -8.943989    
                               1ST/0TH ORDER REACTION:    0.000000                    0.000000    
                               MASS STOR (FLOW MODEL):    0.000000                    0.000000    
                                MASS STORAGE (SOLUTE):    16.47670                   -16.47675    
                                MASS STORAGE (SORBED):    35.15030                   -35.15041    
                            ---------------------------------------------------------------------------
                                              [TOTAL]:    64.23774     KG            -62.79581     KG  

                                                          NET (IN - OUT):    1.441933    
                                                   DISCREPANCY (PERCENT):    2.270160    
     1 CALLS TO GCG PACKAGE FOR TRANSPORT TIME STEP   288 IN FLOW TIME STEP     1 STRESS PERIOD     2
      2 TOTAL ITERATIONS
     1 CALLS TO GCG PACKAGE FOR TRANSPORT TIME STEP   289 IN FLOW TIME STEP     1 STRESS PERIOD     2
      2 TOTAL ITERATIONS
     1 CALLS TO GCG PACKAGE FOR TRANSPORT TIME STEP   290 IN FLOW TIME STEP     1 STRESS PERIOD     2
      2 TOTAL ITERATIONS



 >>>>>>>>>>>>>>>>>>>>>>>>>>>>>>>>>>>>>>>>>>>>>>>>>>>>>>>FOR COMPONENT NO. 01<<<<<<<<<<<<<<<<<<<<<<<<<<<<<<<<<<<<<<<<<<<<<<<<<<<<<<<


                                            -------------------------------------------
                                                      TRANSPORT STEP NO.  290
                                            -------------------------------------------

 TOTAL ELAPSED TIME SINCE BEGINNING OF SIMULATION =   8937.600    S   
 .....................................................................

 TOTAL PARTICLES USED IN THE CURRENT STEP =      1046
 PARTICLES ADDED AT BEGINNING OF THE STEP =        10
 PARTICLES REMOVED AT END OF LAST STEP    =         0

                     CUMULATIVE MASS BUDGETS AT END OF TRANSPORT STEP  290, TIME STEP    1, STRESS PERIOD    2
                     -----------------------------------------------------------------------------------------

                                                             IN                           OUT
                                                      ----------------             ----------------
                               CONSTANT CONCENTRATION:    12.61073                   -2.224658    
                                        CONSTANT HEAD:    0.000000                   -8.944027    
                               1ST/0TH ORDER REACTION:    0.000000                    0.000000    
                               MASS STOR (FLOW MODEL):    0.000000                    0.000000    
                                MASS STORAGE (SOLUTE):    16.47672                   -16.47675    
                                MASS STORAGE (SORBED):    35.15033                   -35.15041    
                            ---------------------------------------------------------------------------
                                              [TOTAL]:    64.23778     KG            -62.79585     KG  

                                                          NET (IN - OUT):    1.441933    
                                                   DISCREPANCY (PERCENT):    2.270159    
     1 CALLS TO GCG PACKAGE FOR TRANSPORT TIME STEP   291 IN FLOW TIME STEP     1 STRESS PERIOD     2
      2 TOTAL ITERATIONS
     1 CALLS TO GCG PACKAGE FOR TRANSPORT TIME STEP   292 IN FLOW TIME STEP     1 STRESS PERIOD     2
      2 TOTAL ITERATIONS
     1 CALLS TO GCG PACKAGE FOR TRANSPORT TIME STEP   293 IN FLOW TIME STEP     1 STRESS PERIOD     2
      2 TOTAL ITERATIONS



 >>>>>>>>>>>>>>>>>>>>>>>>>>>>>>>>>>>>>>>>>>>>>>>>>>>>>>>FOR COMPONENT NO. 01<<<<<<<<<<<<<<<<<<<<<<<<<<<<<<<<<<<<<<<<<<<<<<<<<<<<<<<


                                            -------------------------------------------
                                                      TRANSPORT STEP NO.  293
                                            -------------------------------------------

 TOTAL ELAPSED TIME SINCE BEGINNING OF SIMULATION =   9028.800    S   
 .....................................................................

 TOTAL PARTICLES USED IN THE CURRENT STEP =      1016
 PARTICLES ADDED AT BEGINNING OF THE STEP =        42
 PARTICLES REMOVED AT END OF LAST STEP    =        82

                     CUMULATIVE MASS BUDGETS AT END OF TRANSPORT STEP  293, TIME STEP    1, STRESS PERIOD    2
                     -----------------------------------------------------------------------------------------

                                                             IN                           OUT
                                                      ----------------             ----------------
                               CONSTANT CONCENTRATION:    12.61073                   -2.224658    
                                        CONSTANT HEAD:    0.000000                   -8.944056    
                               1ST/0TH ORDER REACTION:    0.000000                    0.000000    
                               MASS STOR (FLOW MODEL):    0.000000                    0.000000    
                                MASS STORAGE (SOLUTE):    16.47672                   -16.47675    
                                MASS STORAGE (SORBED):    35.15035                   -35.15041    
                            ---------------------------------------------------------------------------
                                              [TOTAL]:    64.23781     KG            -62.79587     KG  

                                                          NET (IN - OUT):    1.441936    
                                                   DISCREPANCY (PERCENT):    2.270164    
     1 CALLS TO GCG PACKAGE FOR TRANSPORT TIME STEP   294 IN FLOW TIME STEP     1 STRESS PERIOD     2
      2 TOTAL ITERATIONS
     1 CALLS TO GCG PACKAGE FOR TRANSPORT TIME STEP   295 IN FLOW TIME STEP     1 STRESS PERIOD     2
      2 TOTAL ITERATIONS
     1 CALLS TO GCG PACKAGE FOR TRANSPORT TIME STEP   296 IN FLOW TIME STEP     1 STRESS PERIOD     2
      2 TOTAL ITERATIONS
  MAXIMUM CONCENTRATION CHANGES FOR EACH ITERATION:
  MAX. CHANGE LAYER,ROW,COL MAX. CHANGE LAYER,ROW,COL MAX. CHANGE LAYER,ROW,COL MAX. CHANGE LAYER,ROW,COL MAX. CHANGE LAYER,ROW,COL
 ------------------------------------------------------------------------------------------------------------------------------------
   0.5927E-01 (  1,  1,101)   0.000     (  1,  1,  1)



 >>>>>>>>>>>>>>>>>>>>>>>>>>>>>>>>>>>>>>>>>>>>>>>>>>>>>>>FOR COMPONENT NO. 01<<<<<<<<<<<<<<<<<<<<<<<<<<<<<<<<<<<<<<<<<<<<<<<<<<<<<<<


                                            -------------------------------------------
                                                      TRANSPORT STEP NO.  296
                                            -------------------------------------------

 TOTAL ELAPSED TIME SINCE BEGINNING OF SIMULATION =   9120.000    S   
 .....................................................................

 TOTAL PARTICLES USED IN THE CURRENT STEP =      1036
 PARTICLES ADDED AT BEGINNING OF THE STEP =        10
 PARTICLES REMOVED AT END OF LAST STEP    =         0

                     CUMULATIVE MASS BUDGETS AT END OF TRANSPORT STEP  296, TIME STEP    1, STRESS PERIOD    2
                     -----------------------------------------------------------------------------------------

                                                             IN                           OUT
                                                      ----------------             ----------------
                               CONSTANT CONCENTRATION:    12.61073                   -2.224658    
                                        CONSTANT HEAD:    0.000000                   -8.944077    
                               1ST/0TH ORDER REACTION:    0.000000                    0.000000    
                               MASS STOR (FLOW MODEL):    0.000000                    0.000000    
                                MASS STORAGE (SOLUTE):    16.47673                   -16.47675    
                                MASS STORAGE (SORBED):    35.15037                   -35.15041    
                            ---------------------------------------------------------------------------
                                              [TOTAL]:    64.23783     KG            -62.79589     KG  

                                                          NET (IN - OUT):    1.441936    
                                                   DISCREPANCY (PERCENT):    2.270163    
  ----- 
 | M T |
 | 3 D | END OF MODEL OUTPUT
  ----- 
