                                   MODFLOW 6
                U.S. GEOLOGICAL SURVEY MODULAR HYDROLOGIC MODEL
                             TRANSPORT MODEL (GWT)
                            VERSION 6.6.1 02/10/2025

   MODFLOW 6 compiled Feb 14 2025 13:40:10 with Intel(R) Fortran Intel(R) 64
   Compiler Classic for applications running on Intel(R) 64, Version 2021.7.0
                             Build 20220726_000000

This software has been approved for release by the U.S. Geological 
Survey (USGS). Although the software has been subjected to rigorous 
review, the USGS reserves the right to update the software as needed 
pursuant to further analysis and review. No warranty, expressed or 
implied, is made by the USGS or the U.S. Government as to the 
functionality of the software and related material nor shall the 
fact of release constitute any such warranty. Furthermore, the 
software is released on condition that neither the USGS nor the U.S. 
Government shall be held liable for any damages resulting from its 
authorized or unauthorized use. Also refer to the USGS Water 
Resources Software User Rights Notice for complete use, copyright, 
and distribution information.


As a work of the United States Government, this USGS product is 
in the public domain within the United States. You can copy, 
modify, distribute, and perform the work, even for commercial 
purposes, all without asking permission. Additionally, USGS 
waives copyright and related rights in the work worldwide 
through CC0 1.0 Universal Public Domain Dedication 
(https://creativecommons.org/publicdomain/zero/1.0/).

The following GNU Lesser General Public License (LGPL) libraries
are used in this USGS product:

    SPARSKIT version 2.0
      ilut, luson, and qsplit 
      (https://www-users.cse.umn.edu/~saad/software/SPARSKIT/)

    RCM - Reverse Cuthill McKee Ordering
      (https://people.math.sc.edu/Burkardt/f_src/rcm/rcm.html)

    BLAS - Basic Linear Algebra Subprograms Level 1
      (https://people.math.sc.edu/Burkardt/f_src/blas1_d/blas1_d.html)

    SPARSEKIT - Sparse Matrix Utility Package
      amux, dperm, dvperm, rperm, and cperm
      (https://people.sc.fsu.edu/~jburkardt/f77_src/sparsekit/sparsekit.html)

The following BSD-3 License libraries are used in this USGS product:

    Modern Fortran DAG Library
      Copyright (c) 2018, Jacob Williams
      All rights reserved.
      (https://github.com/jacobwilliams/daglib)

MODFLOW 6 compiler options: /O2 /heap-arrays:0 /fpe:0 /traceback /nologo /fpp
/c /module:win64\mod_mf6\ /object:win64\obj_mf6\

System command used to initiate simulation:
C:\Users\gross.DESKTOP-AIRQM2M\anaconda3\Scripts\mf6.exe

MODFLOW was compiled using uniform precision.

Real Variables
  KIND: 8
  TINY (smallest non-zero value):    2.225074-308
  HUGE (largest value):    1.797693+308
  PRECISION: 15
  SIZE IN BITS: 64

Integer Variables
  KIND: 4
  HUGE (largest value): 2147483647
  SIZE IN BITS: 32

Long Integer Variables
  KIND: 8
  HUGE (largest value): 9223372036854775807
  SIZE IN BITS: 64

Logical Variables
  KIND: 4
  SIZE IN BITS: 32
 
 NAMEFILE OPTIONS:
    FLOWS WILL BE SAVED TO BUDGET FILE SPECIFIED IN OUTPUT CONTROL
 END NAMEFILE OPTIONS:

 DIS -- STRUCTURED GRID DISCRETIZATION PACKAGE, VERSION 2 : 3/27/2014 - INPUT READ FROM MEMPATH: __INPUT__/GWT_P06-MF6/DIS                         


 DSP-- DISPERSION PACKAGE, VERSION 1, 1/24/2018 INPUT READ FROM MEMPATH: __INPUT__/GWT_P06-MF6/DSP                         


 Setting Discretization Options
 End Setting Discretization Options

 Setting Discretization Dimensions
    NLAY = 1
    NROW = 31
    NCOL = 31
 End Setting Discretization Dimensions

 Setting Discretization Griddata
    DELR set from input file
    DELC set from input file
    TOP set from input file
    BOTM set from input file
    IDOMAIN set from input file
 End Setting Discretization Griddata


 FMI -- FLOW MODEL INTERFACE,' VERSION 2, 8/17/2023
  FLOWS PROVIDED BY A GWF MODEL IN THIS SIMULATION

 ADV-- ADVECTION PACKAGE, VERSION 1, 8/25/2017 INPUT READ FROM UNIT 1015


 # File generated by Flopy version 3.9.1 on 04/04/2025 at 16:18:34.
 PROCESSING ADVECTION OPTIONS
    ADVECTION WEIGHTING SCHEME HAS BEEN SET TO: TVD
 END OF ADVECTION OPTIONS
 Setting DSP Options
    XT3D formulation [0=INACTIVE, 1=ACTIVE, 3=ACTIVE RHS] set to: 0
 End Setting DSP Options

 Setting DSP Griddata
    ALH set from input file
    ATH1 set from input file
 End Setting DSP Griddata

    STRT set from input file

 MST -- MOBILE STORAGE AND TRANSFER PACKAGE, VERSION 1, 7/29/2020 INPUT READ FROM UNIT 1014


 # File generated by Flopy version 3.9.1 on 04/04/2025 at 16:18:34.
 PROCESSING MOBILE STORAGE AND TRANSFER OPTIONS
 END OF MOBILE STORAGE AND TRANSFER OPTIONS
 PROCESSING GRIDDATA

   MOBILE DOMAIN POROSITY =  0.3500000    
 END PROCESSING GRIDDATA

 SSM -- SOURCE-SINK MIXING PACKAGE, VERSION 1, 8/25/2017 INPUT READ FROM UNIT 1017


 # File generated by Flopy version 3.9.1 on 04/04/2025 at 16:18:34.
 PROCESSING SSM OPTIONS
 END OF SSM OPTIONS
 PROCESSING SOURCES
 AUX SOURCE DETECTED.
    USING AUX COLUMN 1 IN PACKAGE WEL-1
 END PROCESSING SOURCES
 OPTIONAL FILEINPUT BLOCK NOT FOUND.  CONTINUING.

The observation utility is active for "GWT_P06-MF6"
 # File generated by Flopy version 3.9.1 on 04/04/2025 at 16:18:34.

Processing observation options:


      THE LAST TIME STEP WILL BE PRINTED
      THE LAST TIME STEP WILL BE PRINTED
 # File generated by Flopy version 3.9.1 on 04/04/2025 at 16:18:34.

 PROCESSING OC OPTIONS

    BUDGET INFORMATION WILL BE WRITTEN TO:
      UNIT NUMBER: 1029
      FILE NAME: gwt_p06-mf6.cbc

 OPENED gwt_p06-mf6.cbc
 FILE TYPE:DATA(BINARY)   UNIT 1029   STATUS:REPLACE             
 FORMAT:UNFORMATTED            ACCESS:STREAM              
 ACTION:READWRITE           

    CONCENTRATION INFORMATION WILL BE WRITTEN TO:
      UNIT NUMBER: 1030
      FILE NAME: gwt_p06-mf6.ucn

 OPENED gwt_p06-mf6.ucn
 FILE TYPE:DATA(BINARY)   UNIT 1030   STATUS:REPLACE             
 FORMAT:UNFORMATTED            ACCESS:STREAM              
 ACTION:READWRITE           

 END OF OC OPTIONS

start timestep kper="1" kstp="1" mode="normal"


 BEGIN READING OUTPUT CONTROL FOR STRESS PERIOD 1
      ALL TIME STEPS WILL BE SAVED
      ALL TIME STEPS WILL BE SAVED
      ALL TIME STEPS WILL BE PRINTED
      ALL TIME STEPS WILL BE PRINTED

 END READING OUTPUT CONTROL FOR STRESS PERIOD 1
 UBDSV1 SAVING  STORAGE-AQUEOUS ON UNIT   1029 AT TIME STEP      1, STRESS PERIOD      1
 UBDSV1 SAVING     FLOW-JA-FACE ON UNIT   1029 AT TIME STEP      1, STRESS PERIOD      1
 UBDSV06 SAVING  SOURCE-SINK MIX IN MODEL GWT_P06-MF6      PACKAGE GWT_P06-MF6     CONNECTED TO MODEL GWT_P06-MF6      PACKAGE SSM              ON UNIT   1029 AT TIME STEP      1, STRESS PERIOD      1
1
  CONCENTRATION IN LAYER   1 AT END OF TIME STEP   1 IN STRESS PERIOD    1
  ---------------------------------------------------------------------------

                1               2               3               4               5               6               7               8               9              10
               11              12              13              14              15              16              17              18              19              20
               21              22              23              24              25              26              27              28              29              30
               31
 ................................................................................................................................................................................................................................................................................................................................................................................................................................................................................................................
   1      0.00000        3.968230E-60    6.957473E-57    6.253031E-54    3.723674E-51    1.622563E-48    5.430259E-46    1.431481E-43    3.009143E-41    5.063103E-39
         6.793336E-37    7.162037E-35    5.668929E-33    2.796176E-31   -3.683574E-31   -3.182624E-29   -3.702268E-31    2.783230E-31    5.278875E-33    4.805019E-35
         7.138135E-38   -3.928289E-39   -5.168211E-41   -3.504142E-43   -1.693260E-45   -7.610545E-48   -3.257982E-50   -1.021625E-52   -1.902804E-55   -1.636914E-58
          0.00000    
   2     3.968230E-60    6.586535E-57    5.904309E-54    3.573625E-51    1.609384E-48    5.662071E-46    1.597143E-43    3.661162E-41    6.858510E-39    1.049715E-36
         1.304831E-34    1.297215E-32    9.877002E-31    4.825677E-29   -5.889746E-29   -5.320853E-27   -5.915061E-29    4.809863E-29    9.330876E-31    9.253246E-33
         2.310476E-35   -7.252210E-37   -1.126994E-38   -8.727362E-41   -4.765418E-43   -2.412538E-45   -1.243962E-47   -5.209875E-50   -1.473484E-52   -2.537087E-55
        -2.218624E-58
   3     6.957473E-57    5.904309E-54    3.520221E-51    1.601179E-48    5.805740E-46    1.719673E-43    4.216217E-41    8.607927E-39    1.464894E-36    2.071597E-34
         2.416225E-32    2.288835E-30    1.691237E-28    8.258661E-27   -9.271838E-27   -8.813371E-25   -9.303494E-27    8.242045E-27    1.623778E-28    1.761886E-30
         6.904555E-33   -1.134661E-34   -2.206336E-36   -1.954600E-38   -1.179358E-40   -6.216529E-43   -3.431091E-45   -1.730352E-47   -6.546079E-50   -1.702273E-52
        -2.828503E-55
   4     6.253031E-54    3.573625E-51    1.601179E-48    5.851374E-46    1.783052E-43    4.584299E-41    9.998172E-39    1.851608E-36    2.905157E-34    3.841807E-32
         4.245564E-30    3.862528E-28    2.789298E-26    1.373743E-24   -1.403895E-24   -1.415980E-22   -1.407228E-24    1.372435E-24    2.721868E-26    3.229924E-28
         1.815175E-30   -1.326305E-32   -3.773876E-34   -3.897001E-36   -2.622412E-38   -1.418594E-40   -7.621913E-43   -4.143663E-45   -1.910669E-47   -6.640586E-50
        -1.639412E-52
   5     3.723674E-51    1.609384E-48    5.805740E-46    1.783052E-43    4.713059E-41    1.076962E-38    2.128236E-36    3.628219E-34    5.311119E-32    6.630871E-30
         6.995931E-28    6.150242E-26    4.365225E-24    2.189775E-22   -2.007929E-22   -2.173067E-20   -2.010160E-22    2.189217E-22    4.319021E-24    5.571336E-26
         4.170694E-28   -5.370862E-31   -5.349512E-32   -6.741632E-34   -5.185234E-36   -3.004122E-38   -1.541698E-40   -7.981261E-43   -3.963361E-45   -1.658660E-47
        -5.375839E-50
   6     1.622563E-48    5.662071E-46    1.719673E-43    4.584299E-41    1.076962E-38    2.228872E-36    4.051235E-34    6.434752E-32    8.873178E-30    1.053843E-27
         1.067696E-25    9.109916E-24    6.381500E-22    3.298419E-20   -2.659651E-20   -3.136472E-18   -2.658357E-20    3.297998E-20    6.361479E-22    8.798246E-24
         8.288587E-26    2.546877E-28   -5.443884E-30   -9.612969E-32   -8.737157E-34   -5.721399E-36   -3.051937E-38   -1.479294E-40   -6.939848E-43   -3.034005E-45
        -1.139278E-47
   7     5.430259E-46    1.597143E-43    4.216217E-41    9.998172E-39    2.128236E-36    4.051235E-34    6.857342E-32    1.024897E-29    1.341731E-27    1.524833E-25
         1.489611E-23    1.236740E-21    8.567281E-20    4.629949E-18   -3.188519E-18   -1.761692E-16   -3.187781E-18    4.629729E-18    8.564060E-20    1.226424E-21
         1.383508E-23    9.065806E-26   -1.517780E-28   -9.990942E-30   -1.172024E-31   -9.001827E-34   -5.420984E-36   -2.769286E-38   -1.272876E-40   -5.408469E-43
        -2.095293E-45
   8     1.431481E-43    3.661162E-41    8.607927E-39    1.851608E-36    3.628219E-34    6.434752E-32    1.024897E-29    1.453307E-27    1.817539E-25    1.985012E-23
         1.874227E-21    1.514853E-19    1.035664E-17   -1.447400E-17   -3.502308E-16    1.706037E-15   -3.502115E-16   -1.448563E-17    1.035429E-17    1.514196E-19
         1.851791E-21    1.757999E-23    7.967603E-26   -4.324187E-28   -1.069829E-29   -1.052640E-31   -7.472478E-34   -4.355698E-36   -2.205188E-38   -1.001525E-40
        -4.147797E-43
   9     3.009143E-41    6.858510E-39    1.464894E-36    2.905157E-34    5.311119E-32    8.873178E-30    1.341731E-27    1.817539E-25    2.182094E-23    2.296606E-21
         2.096907E-19    1.646975E-17   -2.894652E-17   -8.930390E-16    7.961455E-15    1.611537E-13    7.960192E-15   -8.934683E-16   -2.915861E-17    1.646066E-17
         2.096791E-19    2.264584E-21    1.876876E-23    7.450522E-26   -2.832525E-28   -7.048243E-30   -6.714272E-32   -4.714975E-34   -2.772823E-36   -1.438119E-38
        -6.779963E-41
  10     5.063103E-39    1.049715E-36    2.071597E-34    3.841807E-32    6.630871E-30    1.053843E-27    1.524833E-25    1.985012E-23    2.296606E-21    2.332562E-19
         2.056098E-17   -4.281938E-17   -1.414273E-15    2.208945E-14    6.992299E-13    6.052510E-13    6.991726E-13    2.209494E-14   -1.421076E-15   -4.388967E-17
         2.054506E-17    2.333447E-19    2.262858E-21    1.732017E-23    8.108772E-26    1.094102E-28   -1.972607E-30   -2.444606E-32   -1.886430E-34   -1.183629E-36
        -6.555241E-39
  11     6.793336E-37    1.304831E-34    2.416225E-32    4.245564E-30    6.995931E-28    1.067696E-25    1.489611E-23    1.874227E-21    2.096907E-19    2.056098E-17
        -4.864990E-17   -1.742590E-15    3.848072E-14    1.674422E-12    1.724212E-11    6.350986E-11    1.724335E-11    1.673607E-12    3.870302E-14   -1.772225E-15
        -5.056224E-17    2.054458E-17    2.097158E-19    1.848203E-21    1.360030E-23    7.686820E-26    3.400039E-28    1.108131E-30    1.522786E-33   -1.337442E-35
        -1.590068E-37
  12     7.162037E-35    1.297215E-32    2.288835E-30    3.862528E-28    6.150242E-26    9.109916E-24    1.236740E-21    1.514853E-19    1.646975E-17   -4.281938E-17
        -1.742590E-15    4.592550E-14    2.501345E-12    5.578463E-11    1.236318E-09    1.772637E-07    1.236302E-09    5.579968E-11    2.495141E-12    4.665211E-14
        -1.777043E-15   -4.412799E-17    1.645887E-17    1.514261E-19    1.223808E-21    8.704506E-24    5.382789E-26    3.012249E-28    1.569595E-30    7.793080E-33
         3.789532E-35
  13     5.668929E-33    9.877002E-31    1.691237E-28    2.789298E-26    4.365225E-24    6.381500E-22    8.567281E-20    1.035664E-17   -2.894652E-17   -1.414273E-15
         3.848072E-14    2.501345E-12    7.578887E-11    3.397546E-09    8.754112E-07    8.180984E-05    8.754113E-07    3.397375E-09    7.585610E-11    2.493517E-12
         3.880579E-14   -1.423969E-15   -2.925049E-17    1.035351E-17    8.563607E-20    6.355883E-22    4.303996E-24    2.698499E-26    1.599289E-28    9.121752E-31
         5.119397E-33
  14     2.796176E-31    4.825677E-29    8.258661E-27    1.373743E-24    2.189775E-22    3.298419E-20    4.629949E-18   -1.447400E-17   -8.930390E-16    2.208945E-14
         1.674422E-12    5.578463E-11    3.397546E-09    1.391045E-06    2.545553E-04    2.488358E-02    2.545553E-04    1.391045E-06    3.397321E-09    5.580728E-11
         1.673245E-12    2.210245E-14   -8.936897E-16   -1.449175E-17    4.629680E-18    3.297977E-20    2.189233E-22    1.372221E-24    8.238503E-27    4.806140E-29
         2.780007E-31
  15    -3.683574E-31   -5.889746E-29   -9.271838E-27   -1.403895E-24   -2.007929E-22   -2.659651E-20   -3.188519E-18   -3.502308E-16    7.961455E-15    6.992299E-13
         1.724212E-11    1.236318E-09    8.754112E-07    2.545553E-04    4.246085E-02     2.62250        4.246085E-02    2.545553E-04    8.754114E-07    1.236296E-09
         1.724376E-11    6.991580E-13    7.959891E-15   -3.502086E-16   -3.187667E-18   -2.658177E-20   -2.010426E-22   -1.407614E-24   -9.307009E-27   -5.917748E-29
        -3.704134E-31
  16    -3.182624E-29   -5.320853E-27   -8.813371E-25   -1.415980E-22   -2.173067E-20   -3.136472E-18   -1.761692E-16    1.706037E-15    1.611537E-13    6.052510E-13
         6.350986E-11    1.772637E-07    8.180984E-05    2.488358E-02     2.62250         27.8626         2.62250        2.488358E-02    8.180984E-05    1.772637E-07
         6.350983E-11    6.052503E-13    1.611537E-13    1.706037E-15   -1.761692E-16   -3.136472E-18   -2.173068E-20   -1.415981E-22   -8.813376E-25   -5.320856E-27
        -3.182626E-29
  17    -3.702268E-31   -5.915061E-29   -9.303494E-27   -1.407228E-24   -2.010160E-22   -2.658357E-20   -3.187781E-18   -3.502115E-16    7.960192E-15    6.991726E-13
         1.724335E-11    1.236302E-09    8.754113E-07    2.545553E-04    4.246085E-02     2.62250        4.246085E-02    2.545553E-04    8.754112E-07    1.236317E-09
         1.724212E-11    6.992299E-13    7.961455E-15   -3.502308E-16   -3.188521E-18   -2.659654E-20   -2.007932E-22   -1.403898E-24   -9.271858E-27   -5.889759E-29
        -3.683582E-31
  18     2.783230E-31    4.809863E-29    8.242045E-27    1.372435E-24    2.189217E-22    3.297998E-20    4.629729E-18   -1.448563E-17   -8.934683E-16    2.209494E-14
         1.673607E-12    5.579968E-11    3.397375E-09    1.391045E-06    2.545553E-04    2.488358E-02    2.545553E-04    1.391045E-06    3.397547E-09    5.578463E-11
         1.674422E-12    2.208945E-14   -8.930390E-16   -1.447400E-17    4.629949E-18    3.298419E-20    2.189775E-22    1.373743E-24    8.258661E-27    4.825676E-29
         2.796176E-31
  19     5.278875E-33    9.330876E-31    1.623778E-28    2.721868E-26    4.319021E-24    6.361479E-22    8.564060E-20    1.035429E-17   -2.915861E-17   -1.421076E-15
         3.870302E-14    2.495141E-12    7.585610E-11    3.397321E-09    8.754114E-07    8.180984E-05    8.754112E-07    3.397547E-09    7.578887E-11    2.501345E-12
         3.848072E-14   -1.414273E-15   -2.894652E-17    1.035664E-17    8.567281E-20    6.381499E-22    4.365225E-24    2.789298E-26    1.691237E-28    9.877002E-31
         5.668929E-33
  20     4.805019E-35    9.253246E-33    1.761886E-30    3.229924E-28    5.571336E-26    8.798246E-24    1.226424E-21    1.514196E-19    1.646066E-17   -4.388967E-17
        -1.772225E-15    4.665211E-14    2.493517E-12    5.580728E-11    1.236296E-09    1.772637E-07    1.236317E-09    5.578463E-11    2.501345E-12    4.592550E-14
        -1.742590E-15   -4.281938E-17    1.646975E-17    1.514853E-19    1.236740E-21    9.109916E-24    6.150242E-26    3.862527E-28    2.288835E-30    1.297215E-32
         7.162037E-35
  21     7.138135E-38    2.310476E-35    6.904555E-33    1.815175E-30    4.170694E-28    8.288587E-26    1.383508E-23    1.851791E-21    2.096791E-19    2.054506E-17
        -5.056224E-17   -1.777043E-15    3.880579E-14    1.673245E-12    1.724376E-11    6.350983E-11    1.724212E-11    1.674422E-12    3.848072E-14   -1.742590E-15
        -4.864990E-17    2.056098E-17    2.096907E-19    1.874227E-21    1.489611E-23    1.067696E-25    6.995931E-28    4.245564E-30    2.416225E-32    1.304831E-34
         6.793336E-37
  22    -3.928289E-39   -7.252210E-37   -1.134661E-34   -1.326305E-32   -5.370862E-31    2.546877E-28    9.065806E-26    1.757999E-23    2.264584E-21    2.333447E-19
         2.054458E-17   -4.412799E-17   -1.423969E-15    2.210245E-14    6.991580E-13    6.052503E-13    6.992299E-13    2.208945E-14   -1.414273E-15   -4.281938E-17
         2.056098E-17    2.332562E-19    2.296606E-21    1.985012E-23    1.524833E-25    1.053843E-27    6.630871E-30    3.841807E-32    2.071597E-34    1.049715E-36
         5.063103E-39
  23    -5.168211E-41   -1.126994E-38   -2.206336E-36   -3.773876E-34   -5.349512E-32   -5.443884E-30   -1.517780E-28    7.967603E-26    1.876876E-23    2.262858E-21
         2.097158E-19    1.645887E-17   -2.925049E-17   -8.936897E-16    7.959891E-15    1.611537E-13    7.961455E-15   -8.930390E-16   -2.894652E-17    1.646975E-17
         2.096907E-19    2.296606E-21    2.182094E-23    1.817539E-25    1.341731E-27    8.873178E-30    5.311120E-32    2.905157E-34    1.464894E-36    6.858510E-39
         3.009143E-41
  24    -3.504142E-43   -8.727362E-41   -1.954600E-38   -3.897001E-36   -6.741632E-34   -9.612969E-32   -9.990942E-30   -4.324187E-28    7.450522E-26    1.732017E-23
         1.848203E-21    1.514261E-19    1.035351E-17   -1.449175E-17   -3.502086E-16    1.706037E-15   -3.502308E-16   -1.447400E-17    1.035664E-17    1.514853E-19
         1.874227E-21    1.985012E-23    1.817539E-25    1.453307E-27    1.024897E-29    6.434752E-32    3.628219E-34    1.851608E-36    8.607927E-39    3.661162E-41
         1.431481E-43
  25    -1.693260E-45   -4.765418E-43   -1.179358E-40   -2.622412E-38   -5.185234E-36   -8.737157E-34   -1.172024E-31   -1.069829E-29   -2.832525E-28    8.108772E-26
         1.360030E-23    1.223808E-21    8.563607E-20    4.629680E-18   -3.187667E-18   -1.761692E-16   -3.188521E-18    4.629949E-18    8.567281E-20    1.236740E-21
         1.489611E-23    1.524833E-25    1.341731E-27    1.024897E-29    6.857342E-32    4.051235E-34    2.128236E-36    9.998172E-39    4.216217E-41    1.597143E-43
         5.430259E-46
  26    -7.610545E-48   -2.412538E-45   -6.216529E-43   -1.418594E-40   -3.004122E-38   -5.721399E-36   -9.001827E-34   -1.052640E-31   -7.048243E-30    1.094102E-28
         7.686820E-26    8.704506E-24    6.355883E-22    3.297977E-20   -2.658177E-20   -3.136472E-18   -2.659654E-20    3.298419E-20    6.381499E-22    9.109916E-24
         1.067696E-25    1.053843E-27    8.873178E-30    6.434752E-32    4.051235E-34    2.228872E-36    1.076962E-38    4.584299E-41    1.719673E-43    5.662071E-46
         1.622563E-48
  27    -3.257982E-50   -1.243962E-47   -3.431091E-45   -7.621913E-43   -1.541698E-40   -3.051937E-38   -5.420984E-36   -7.472478E-34   -6.714272E-32   -1.972607E-30
         3.400039E-28    5.382789E-26    4.303996E-24    2.189233E-22   -2.010426E-22   -2.173068E-20   -2.007932E-22    2.189775E-22    4.365225E-24    6.150242E-26
         6.995931E-28    6.630871E-30    5.311120E-32    3.628219E-34    2.128236E-36    1.076962E-38    4.713059E-41    1.783052E-43    5.805740E-46    1.609384E-48
         3.723674E-51
  28    -1.021625E-52   -5.209875E-50   -1.730352E-47   -4.143663E-45   -7.981261E-43   -1.479294E-40   -2.769286E-38   -4.355698E-36   -4.714975E-34   -2.444606E-32
         1.108131E-30    3.012249E-28    2.698499E-26    1.372221E-24   -1.407614E-24   -1.415981E-22   -1.403898E-24    1.373743E-24    2.789298E-26    3.862527E-28
         4.245564E-30    3.841807E-32    2.905157E-34    1.851608E-36    9.998172E-39    4.584299E-41    1.783052E-43    5.851374E-46    1.601179E-48    3.573625E-51
         6.253031E-54
  29    -1.902804E-55   -1.473484E-52   -6.546079E-50   -1.910669E-47   -3.963361E-45   -6.939848E-43   -1.272876E-40   -2.205188E-38   -2.772823E-36   -1.886430E-34
         1.522786E-33    1.569595E-30    1.599289E-28    8.238503E-27   -9.307009E-27   -8.813376E-25   -9.271858E-27    8.258661E-27    1.691237E-28    2.288835E-30
         2.416225E-32    2.071597E-34    1.464894E-36    8.607927E-39    4.216217E-41    1.719673E-43    5.805740E-46    1.601179E-48    3.520221E-51    5.904309E-54
         6.957473E-57
  30    -1.636914E-58   -2.537087E-55   -1.702273E-52   -6.640586E-50   -1.658660E-47   -3.034005E-45   -5.408469E-43   -1.001525E-40   -1.438119E-38   -1.183629E-36
        -1.337442E-35    7.793080E-33    9.121752E-31    4.806140E-29   -5.917748E-29   -5.320856E-27   -5.889759E-29    4.825676E-29    9.877002E-31    1.297215E-32
         1.304831E-34    1.049715E-36    6.858510E-39    3.661162E-41    1.597143E-43    5.662071E-46    1.609384E-48    3.573625E-51    5.904309E-54    6.586535E-57
         3.968230E-60
  31      0.00000       -2.218624E-58   -2.828503E-55   -1.639412E-52   -5.375839E-50   -1.139278E-47   -2.095293E-45   -4.147797E-43   -6.779963E-41   -6.555241E-39
        -1.590068E-37    3.789532E-35    5.119397E-33    2.780007E-31   -3.704134E-31   -3.182626E-29   -3.683582E-31    2.796176E-31    5.668929E-33    7.162037E-35
         6.793336E-37    5.063103E-39    3.009143E-41    1.431481E-43    5.430259E-46    1.622563E-48    3.723674E-51    6.253031E-54    6.957473E-57    3.968230E-60
          0.00000    

 CONCENTRATION WILL BE SAVED ON UNIT 1030 AT END OF TIME STEP    1, STRESS PERIOD    1


  MASS BUDGET FOR ENTIRE MODEL AT END OF TIME STEP    1, STRESS PERIOD   1
  ---------------------------------------------------------------------------------------------------

     CUMULATIVE MASS      M       RATES FOR THIS TIME STEP      M/T          PACKAGE NAME    
     ------------------                 ------------------------                     ----------------

           IN:                                      IN:
           ---                                      ---
     STORAGE-AQUEOUS =       2.0980E-07       STORAGE-AQUEOUS =       8.2770E-09     MST                              
                 WEL =   219000000.0000                   WEL =     8640000.0000     SSM_WEL-1                        
                 CHD =           0.0000                   CHD =           0.0000     SSM_CHD-1                        

            TOTAL IN =   219000000.0000              TOTAL IN =     8640000.0000

          OUT:                                     OUT:
          ----                                     ----
     STORAGE-AQUEOUS =   219000000.0000       STORAGE-AQUEOUS =     8640000.0000     MST                              
                 WEL =           0.0000                   WEL =           0.0000     SSM_WEL-1                        
                 CHD =       6.7362E-26                   CHD =       2.6576E-27     SSM_CHD-1                        

           TOTAL OUT =   219000000.0000             TOTAL OUT =     8640000.0000

            IN - OUT =       8.4341E-06              IN - OUT =       3.3155E-07

 PERCENT DISCREPANCY =           0.00     PERCENT DISCREPANCY =           0.00




         TIME SUMMARY AT END OF TIME STEP    1 IN STRESS PERIOD    1
                    SECONDS     MINUTES      HOURS       DAYS        YEARS
                    -----------------------------------------------------------
   TIME STEP LENGTH 2.19000E+06  36500.      608.33      25.347     6.93969E-02
 STRESS PERIOD TIME 2.19000E+06  36500.      608.33      25.347     6.93969E-02
         TOTAL TIME 2.19000E+06  36500.      608.33      25.347     6.93969E-02


end timestep


start timestep kper="1" kstp="2" mode="normal"

 UBDSV1 SAVING  STORAGE-AQUEOUS ON UNIT   1029 AT TIME STEP      2, STRESS PERIOD      1
 UBDSV1 SAVING     FLOW-JA-FACE ON UNIT   1029 AT TIME STEP      2, STRESS PERIOD      1
 UBDSV06 SAVING  SOURCE-SINK MIX IN MODEL GWT_P06-MF6      PACKAGE GWT_P06-MF6     CONNECTED TO MODEL GWT_P06-MF6      PACKAGE SSM              ON UNIT   1029 AT TIME STEP      2, STRESS PERIOD      1
1
  CONCENTRATION IN LAYER   1 AT END OF TIME STEP   2 IN STRESS PERIOD    1
  ---------------------------------------------------------------------------

                1               2               3               4               5               6               7               8               9              10
               11              12              13              14              15              16              17              18              19              20
               21              22              23              24              25              26              27              28              29              30
               31
 ................................................................................................................................................................................................................................................................................................................................................................................................................................................................................................................
   1      0.00000        8.089783E-59    1.348229E-55    1.148767E-52    6.466468E-50    2.654696E-47    8.339042E-45    2.054351E-42    4.015197E-40    6.243091E-38
         7.683632E-36    7.366277E-34    5.262720E-32    2.381418E-30    1.423571E-29   -2.129565E-28    1.422291E-29    2.373036E-30    5.131201E-32    8.114405E-34
         1.038664E-35    1.125044E-37    9.491661E-40    5.729100E-42    2.351229E-44    5.913548E-47    4.452894E-50   -2.279997E-52   -7.674211E-55   -8.281227E-58
          0.00000    
   2     8.089783E-59    1.277691E-55    1.086379E-52    6.218606E-50    2.639897E-47    8.722200E-45    2.300701E-42    4.907259E-40    8.503377E-38    1.195295E-35
         1.352654E-33    1.211337E-31    8.223945E-30    3.632370E-28    2.481631E-27   -3.029499E-26    2.479994E-27    3.622575E-28    8.069928E-30    1.323935E-31
         1.842726E-33    2.246646E-35    2.163587E-37    1.501781E-39    7.311500E-42    2.369396E-44    3.742934E-47   -5.596551E-50   -4.547839E-52   -1.059856E-54
        -1.076401E-57
   3     1.348229E-55    1.086379E-52    6.125812E-50    2.626612E-47    8.944842E-45    2.477934E-42    5.654328E-40    1.068289E-37    1.670929E-35    2.153674E-33
         2.265556E-31    1.910343E-29    1.239051E-27    5.362131E-26    4.272969E-25   -4.144117E-24    4.271014E-25    5.352151E-26    1.223651E-27    2.030253E-29
         2.979667E-31    4.014223E-33    4.379683E-35    3.480901E-37    1.981265E-39    8.027953E-42    2.065376E-44    1.478311E-47   -1.214383E-49   -5.633498E-52
        -1.200695E-54
   4     1.148767E-52    6.218606E-50    2.626612E-47    9.015575E-45    2.569611E-42    6.149789E-40    1.241547E-37    2.114309E-35    3.026082E-33    3.614128E-31
         3.561305E-29    2.841417E-27    1.764548E-25    7.488985E-24    7.118847E-23   -5.254372E-22    7.116810E-23    7.481026E-24    1.752821E-25    2.885512E-27
         4.303413E-29    6.283196E-31    7.764142E-33    7.064833E-35    4.647235E-37    2.268346E-39    8.051221E-42    1.793881E-44    6.558695E-48   -1.236651E-49
        -5.262724E-52
   5     6.466468E-50    2.639897E-47    8.944842E-45    2.569611E-42    6.323116E-40    1.337704E-37    2.431607E-35    3.783584E-33    5.007092E-31    5.583545E-29
         5.178788E-27    3.916996E-25    2.325333E-23    9.641357E-22    1.130471E-20   -5.910399E-20    1.130311E-20    9.637473E-22    2.319817E-23    3.799330E-25
         5.459544E-27    8.306685E-29    1.167249E-30    1.229238E-32    9.325930E-35    5.327864E-37    2.363541E-39    7.970429E-42    1.854917E-44    1.879548E-47
        -5.652966E-50
   6     2.654696E-47    8.722200E-45    2.477934E-42    6.149789E-40    1.337704E-37    2.547059E-35    4.226965E-33    6.073540E-31    7.489335E-29    7.836268E-27
         6.854428E-25    4.905642E-23    2.763485E-21    1.103634E-19    1.685267E-18   -5.424442E-18    1.685232E-18    1.103502E-19    2.759248E-21    4.853016E-23
         6.321356E-25    8.904375E-27    1.403719E-28    1.756102E-30    1.559523E-32    1.031912E-34    5.410299E-37    2.310213E-39    8.003338E-42    2.188208E-44
         4.427368E-47
   7     8.339042E-45    2.300701E-42    5.654328E-40    1.241547E-37    2.431607E-35    4.226965E-33    6.474819E-31    8.660084E-29    1.000209E-26    9.840658E-25
         8.104570E-23    5.449378E-21    2.861235E-19    1.055294E-17   -1.915116E-17   -3.099800E-16   -1.914965E-17    1.055236E-17    2.861073E-19    5.429565E-21
         7.885196E-23    8.399850E-25    1.248191E-26    1.904844E-28    2.057271E-30    1.599728E-32    9.730590E-35    4.899904E-37    2.097546E-39    7.702880E-42
         2.433661E-44
   8     2.054351E-42    4.907259E-40    1.068289E-37    2.114309E-35    3.783584E-33    6.073540E-31    8.660084E-29    1.084250E-26    1.175872E-24    1.086491E-22
         8.369991E-21    5.203099E-19    2.444805E-17   -7.117037E-17   -1.669666E-15    5.788027E-15   -1.669620E-15   -7.119638E-17    2.444557E-17    5.207504E-19
         8.317660E-21    1.033825E-22    9.348623E-25    1.427524E-26    1.959337E-28    1.859553E-30    1.328327E-32    7.748461E-35    3.869124E-37    1.694733E-39
         6.605549E-42
   9     4.015197E-40    8.503377E-38    1.670929E-35    3.026082E-33    5.007092E-31    7.489335E-29    1.000209E-26    1.175872E-24    1.196650E-22    1.032246E-20
         7.329102E-19    4.071393E-17   -1.568735E-16   -5.281537E-15   -4.357499E-14    4.223944E-13   -4.357834E-14   -5.282325E-15   -1.573067E-16    4.072094E-17
         7.349227E-19    1.023020E-20    1.123092E-22    9.225183E-25    1.280655E-26    1.510692E-28    1.295478E-30    8.802257E-33    5.060033E-35    2.555264E-37
         1.156571E-39
  10     6.243091E-38    1.195295E-35    2.153674E-33    3.614128E-31    5.583545E-29    7.836268E-27    9.840658E-25    1.086491E-22    1.032246E-20    8.198209E-19
         5.196563E-17   -2.457427E-16   -1.033710E-14   -1.357736E-13    1.018339E-12    2.093627E-11    1.018194E-12   -1.357561E-13   -1.035318E-14   -2.475751E-16
         5.200809E-17    8.231478E-19    1.022424E-20    1.027164E-22    8.170765E-25    9.185968E-27    9.059093E-29    7.097875E-31    4.654049E-33    2.670487E-35
         1.378446E-37
  11     7.683632E-36    1.352654E-33    2.265556E-31    3.561305E-29    5.178788E-27    6.854428E-25    8.104570E-23    8.369991E-21    7.329102E-19    5.196563E-17
        -2.842679E-16   -1.417602E-14   -2.380495E-13    1.350234E-12    1.172932E-10    1.642668E-09    1.172960E-10    1.348317E-12   -2.374984E-13   -1.425343E-14
        -2.872710E-16    5.201392E-17    7.352970E-19    8.308493E-21    7.829890E-23    6.179576E-25    5.565076E-27    4.584541E-29    3.278285E-31    2.079638E-33
         1.200466E-35
  12     7.366277E-34    1.211337E-31    1.910343E-29    2.841417E-27    3.916996E-25    4.905642E-23    5.449378E-21    5.203099E-19    4.071393E-17   -2.457427E-16
        -1.417602E-14   -2.831318E-13    1.751351E-12    2.959266E-10    1.345519E-08    1.162956E-06    1.345516E-08    2.959592E-10    1.737519E-12   -2.813740E-13
        -1.426638E-14   -2.479823E-16    4.072441E-17    5.209402E-19    5.424764E-21    4.833976E-23    3.757157E-25    2.904388E-27    2.084279E-29    1.382119E-31
         8.589224E-34
  13     5.262720E-32    8.223945E-30    1.239051E-27    1.764548E-25    2.325333E-23    2.763485E-21    2.861235E-19    2.444805E-17   -1.568735E-16   -1.033710E-14
        -2.380495E-13    1.751351E-12    3.928671E-10    3.274152E-08    5.691848E-06    4.554383E-04    5.691849E-06    3.274118E-08    3.930047E-10    1.734037E-12
        -2.372562E-13   -1.036057E-14   -1.575090E-16    2.444494E-17    2.861199E-19    2.758126E-21    2.317164E-23    1.747743E-25    1.217291E-27    8.006663E-30
         5.076118E-32
  14     2.381418E-30    3.632370E-28    5.362131E-26    7.488985E-24    9.641357E-22    1.103634E-19    1.055294E-17   -7.117037E-17   -5.281537E-15   -1.357736E-13
         1.350234E-12    2.959266E-10    3.274152E-08    9.001913E-06    1.382216E-03    0.108190        1.382216E-03    9.001912E-06    3.274108E-08    2.959745E-10
         1.347514E-12   -1.357380E-13   -5.282825E-15   -7.121242E-17    1.055222E-17    1.103486E-19    9.636735E-22    7.479139E-24    5.349644E-26    3.620039E-28
         2.370819E-30
  15     1.423571E-29    2.481631E-27    4.272969E-25    7.118847E-23    1.130471E-20    1.685267E-18   -1.915116E-17   -1.669666E-15   -4.357499E-14    1.018339E-12
         1.172932E-10    1.345519E-08    5.691848E-06    1.382216E-03    0.176436         7.03381        0.176436        1.382216E-03    5.691849E-06    1.345515E-08
         1.172969E-10    1.018157E-12   -4.357914E-14   -1.669613E-15   -1.914942E-17    1.685227E-18    1.130291E-20    7.116575E-23    4.270798E-25    2.479820E-27
         1.422161E-29
  16    -2.129565E-28   -3.029499E-26   -4.144117E-24   -5.254372E-22   -5.910399E-20   -5.424442E-18   -3.099800E-16    5.788027E-15    4.223944E-13    2.093627E-11
         1.642668E-09    1.162956E-06    4.554383E-04    0.108190         7.03381         47.9619         7.03381        0.108190        4.554383E-04    1.162956E-06
         1.642668E-09    2.093627E-11    4.223944E-13    5.788028E-15   -3.099800E-16   -5.424442E-18   -5.910401E-20   -5.254374E-22   -4.144118E-24   -3.029500E-26
        -2.129566E-28
  17     1.422291E-29    2.479994E-27    4.271014E-25    7.116810E-23    1.130311E-20    1.685232E-18   -1.914965E-17   -1.669620E-15   -4.357834E-14    1.018194E-12
         1.172960E-10    1.345516E-08    5.691849E-06    1.382216E-03    0.176436         7.03381        0.176436        1.382216E-03    5.691848E-06    1.345519E-08
         1.172932E-10    1.018339E-12   -4.357499E-14   -1.669666E-15   -1.915117E-17    1.685267E-18    1.130471E-20    7.118849E-23    4.272971E-25    2.481632E-27
         1.423571E-29
  18     2.373036E-30    3.622575E-28    5.352151E-26    7.481026E-24    9.637473E-22    1.103502E-19    1.055236E-17   -7.119638E-17   -5.282325E-15   -1.357561E-13
         1.348317E-12    2.959592E-10    3.274118E-08    9.001912E-06    1.382216E-03    0.108190        1.382216E-03    9.001913E-06    3.274152E-08    2.959266E-10
         1.350235E-12   -1.357736E-13   -5.281537E-15   -7.117038E-17    1.055294E-17    1.103634E-19    9.641358E-22    7.488986E-24    5.362131E-26    3.632370E-28
         2.381418E-30
  19     5.131201E-32    8.069928E-30    1.223651E-27    1.752821E-25    2.319817E-23    2.759248E-21    2.861073E-19    2.444557E-17   -1.573067E-16   -1.035318E-14
        -2.374984E-13    1.737519E-12    3.930047E-10    3.274108E-08    5.691849E-06    4.554383E-04    5.691848E-06    3.274152E-08    3.928671E-10    1.751351E-12
        -2.380495E-13   -1.033710E-14   -1.568735E-16    2.444805E-17    2.861235E-19    2.763485E-21    2.325333E-23    1.764548E-25    1.239051E-27    8.223945E-30
         5.262720E-32
  20     8.114405E-34    1.323935E-31    2.030253E-29    2.885512E-27    3.799330E-25    4.853016E-23    5.429565E-21    5.207504E-19    4.072094E-17   -2.475751E-16
        -1.425343E-14   -2.813740E-13    1.734037E-12    2.959745E-10    1.345515E-08    1.162956E-06    1.345519E-08    2.959266E-10    1.751351E-12   -2.831318E-13
        -1.417602E-14   -2.457427E-16    4.071393E-17    5.203099E-19    5.449378E-21    4.905642E-23    3.916996E-25    2.841418E-27    1.910343E-29    1.211337E-31
         7.366277E-34
  21     1.038664E-35    1.842726E-33    2.979667E-31    4.303413E-29    5.459544E-27    6.321356E-25    7.885196E-23    8.317660E-21    7.349227E-19    5.200809E-17
        -2.872710E-16   -1.426638E-14   -2.372562E-13    1.347514E-12    1.172969E-10    1.642668E-09    1.172932E-10    1.350235E-12   -2.380495E-13   -1.417602E-14
        -2.842679E-16    5.196563E-17    7.329102E-19    8.369991E-21    8.104570E-23    6.854428E-25    5.178788E-27    3.561305E-29    2.265556E-31    1.352654E-33
         7.683632E-36
  22     1.125044E-37    2.246646E-35    4.014223E-33    6.283196E-31    8.306685E-29    8.904375E-27    8.399850E-25    1.033825E-22    1.023020E-20    8.231478E-19
         5.201392E-17   -2.479823E-16   -1.036057E-14   -1.357380E-13    1.018157E-12    2.093627E-11    1.018339E-12   -1.357736E-13   -1.033710E-14   -2.457427E-16
         5.196563E-17    8.198209E-19    1.032246E-20    1.086491E-22    9.840658E-25    7.836268E-27    5.583545E-29    3.614128E-31    2.153674E-33    1.195295E-35
         6.243091E-38
  23     9.491661E-40    2.163587E-37    4.379683E-35    7.764142E-33    1.167249E-30    1.403719E-28    1.248191E-26    9.348623E-25    1.123092E-22    1.022424E-20
         7.352970E-19    4.072441E-17   -1.575090E-16   -5.282825E-15   -4.357914E-14    4.223944E-13   -4.357499E-14   -5.281537E-15   -1.568735E-16    4.071393E-17
         7.329102E-19    1.032246E-20    1.196650E-22    1.175872E-24    1.000209E-26    7.489335E-29    5.007092E-31    3.026082E-33    1.670929E-35    8.503377E-38
         4.015197E-40
  24     5.729100E-42    1.501781E-39    3.480901E-37    7.064833E-35    1.229238E-32    1.756102E-30    1.904844E-28    1.427524E-26    9.225183E-25    1.027164E-22
         8.308493E-21    5.209402E-19    2.444494E-17   -7.121242E-17   -1.669613E-15    5.788028E-15   -1.669666E-15   -7.117038E-17    2.444805E-17    5.203099E-19
         8.369991E-21    1.086491E-22    1.175872E-24    1.084250E-26    8.660084E-29    6.073540E-31    3.783584E-33    2.114309E-35    1.068289E-37    4.907259E-40
         2.054351E-42
  25     2.351229E-44    7.311500E-42    1.981265E-39    4.647235E-37    9.325930E-35    1.559523E-32    2.057271E-30    1.959337E-28    1.280655E-26    8.170765E-25
         7.829890E-23    5.424764E-21    2.861199E-19    1.055222E-17   -1.914942E-17   -3.099800E-16   -1.915117E-17    1.055294E-17    2.861235E-19    5.449378E-21
         8.104570E-23    9.840658E-25    1.000209E-26    8.660084E-29    6.474818E-31    4.226965E-33    2.431607E-35    1.241547E-37    5.654328E-40    2.300701E-42
         8.339042E-45
  26     5.913548E-47    2.369396E-44    8.027953E-42    2.268346E-39    5.327864E-37    1.031912E-34    1.599728E-32    1.859553E-30    1.510692E-28    9.185968E-27
         6.179576E-25    4.833976E-23    2.758126E-21    1.103486E-19    1.685227E-18   -5.424442E-18    1.685267E-18    1.103634E-19    2.763485E-21    4.905642E-23
         6.854428E-25    7.836268E-27    7.489335E-29    6.073540E-31    4.226965E-33    2.547059E-35    1.337704E-37    6.149789E-40    2.477934E-42    8.722200E-45
         2.654696E-47
  27     4.452894E-50    3.742934E-47    2.065376E-44    8.051221E-42    2.363541E-39    5.410299E-37    9.730590E-35    1.328327E-32    1.295478E-30    9.059093E-29
         5.565076E-27    3.757157E-25    2.317164E-23    9.636735E-22    1.130291E-20   -5.910401E-20    1.130471E-20    9.641358E-22    2.325333E-23    3.916996E-25
         5.178788E-27    5.583545E-29    5.007092E-31    3.783584E-33    2.431607E-35    1.337704E-37    6.323116E-40    2.569611E-42    8.944842E-45    2.639897E-47
         6.466468E-50
  28    -2.279997E-52   -5.596551E-50    1.478311E-47    1.793881E-44    7.970429E-42    2.310213E-39    4.899904E-37    7.748461E-35    8.802257E-33    7.097875E-31
         4.584541E-29    2.904388E-27    1.747743E-25    7.479139E-24    7.116575E-23   -5.254374E-22    7.118849E-23    7.488986E-24    1.764548E-25    2.841418E-27
         3.561305E-29    3.614128E-31    3.026082E-33    2.114309E-35    1.241547E-37    6.149789E-40    2.569611E-42    9.015575E-45    2.626612E-47    6.218606E-50
         1.148767E-52
  29    -7.674211E-55   -4.547839E-52   -1.214383E-49    6.558695E-48    1.854917E-44    8.003338E-42    2.097546E-39    3.869124E-37    5.060033E-35    4.654049E-33
         3.278285E-31    2.084279E-29    1.217291E-27    5.349644E-26    4.270798E-25   -4.144118E-24    4.272971E-25    5.362131E-26    1.239051E-27    1.910343E-29
         2.265556E-31    2.153674E-33    1.670929E-35    1.068289E-37    5.654328E-40    2.477934E-42    8.944842E-45    2.626612E-47    6.125812E-50    1.086379E-52
         1.348229E-55
  30    -8.281227E-58   -1.059856E-54   -5.633498E-52   -1.236651E-49    1.879548E-47    2.188208E-44    7.702880E-42    1.694733E-39    2.555264E-37    2.670487E-35
         2.079638E-33    1.382119E-31    8.006663E-30    3.620039E-28    2.479820E-27   -3.029500E-26    2.481632E-27    3.632370E-28    8.223945E-30    1.211337E-31
         1.352654E-33    1.195295E-35    8.503377E-38    4.907259E-40    2.300701E-42    8.722200E-45    2.639897E-47    6.218606E-50    1.086379E-52    1.277691E-55
         8.089783E-59
  31      0.00000       -1.076401E-57   -1.200695E-54   -5.262724E-52   -5.652966E-50    4.427368E-47    2.433661E-44    6.605549E-42    1.156571E-39    1.378446E-37
         1.200466E-35    8.589224E-34    5.076118E-32    2.370819E-30    1.422161E-29   -2.129566E-28    1.423571E-29    2.381418E-30    5.262720E-32    7.366277E-34
         7.683632E-36    6.243091E-38    4.015197E-40    2.054351E-42    8.339042E-45    2.654696E-47    6.466468E-50    1.148767E-52    1.348229E-55    8.089783E-59
          0.00000    

 CONCENTRATION WILL BE SAVED ON UNIT 1030 AT END OF TIME STEP    2, STRESS PERIOD    1


  MASS BUDGET FOR ENTIRE MODEL AT END OF TIME STEP    2, STRESS PERIOD   1
  ---------------------------------------------------------------------------------------------------

     CUMULATIVE MASS      M       RATES FOR THIS TIME STEP      M/T          PACKAGE NAME    
     ------------------                 ------------------------                     ----------------

           IN:                                      IN:
           ---                                      ---
     STORAGE-AQUEOUS =       7.9898E-05       STORAGE-AQUEOUS =       3.1439E-06     MST                              
                 WEL =   438000000.0000                   WEL =     8640000.0000     SSM_WEL-1                        
                 CHD =           0.0000                   CHD =           0.0000     SSM_CHD-1                        

            TOTAL IN =   438000000.0001              TOTAL IN =     8640000.0000

          OUT:                                     OUT:
          ----                                     ----
     STORAGE-AQUEOUS =   438000000.0001       STORAGE-AQUEOUS =     8640000.0000     MST                              
                 WEL =           0.0000                   WEL =           0.0000     SSM_WEL-1                        
                 CHD =       4.0952E-24                   CHD =       1.5891E-25     SSM_CHD-1                        

           TOTAL OUT =   438000000.0001             TOTAL OUT =     8640000.0000

            IN - OUT =       1.5259E-05              IN - OUT =       2.7008E-07

 PERCENT DISCREPANCY =           0.00     PERCENT DISCREPANCY =           0.00




         TIME SUMMARY AT END OF TIME STEP    2 IN STRESS PERIOD    1
                    SECONDS     MINUTES      HOURS       DAYS        YEARS
                    -----------------------------------------------------------
   TIME STEP LENGTH 2.19000E+06  36500.      608.33      25.347     6.93969E-02
 STRESS PERIOD TIME 4.38000E+06  73000.      1216.7      50.694     0.13879    
         TOTAL TIME 4.38000E+06  73000.      1216.7      50.694     0.13879    


end timestep


start timestep kper="1" kstp="3" mode="normal"

 UBDSV1 SAVING  STORAGE-AQUEOUS ON UNIT   1029 AT TIME STEP      3, STRESS PERIOD      1
 UBDSV1 SAVING     FLOW-JA-FACE ON UNIT   1029 AT TIME STEP      3, STRESS PERIOD      1
 UBDSV06 SAVING  SOURCE-SINK MIX IN MODEL GWT_P06-MF6      PACKAGE GWT_P06-MF6     CONNECTED TO MODEL GWT_P06-MF6      PACKAGE SSM              ON UNIT   1029 AT TIME STEP      3, STRESS PERIOD      1
1
  CONCENTRATION IN LAYER   1 AT END OF TIME STEP   3 IN STRESS PERIOD    1
  ---------------------------------------------------------------------------

                1               2               3               4               5               6               7               8               9              10
               11              12              13              14              15              16              17              18              19              20
               21              22              23              24              25              26              27              28              29              30
               31
 ................................................................................................................................................................................................................................................................................................................................................................................................................................................................................................................
   1      0.00000        8.615446E-58    1.368089E-54    1.107961E-51    5.911691E-49    2.293378E-46    6.783895E-44    1.567481E-41    2.860076E-39    4.128787E-37
         4.686901E-35    4.112691E-33    2.669507E-31    1.102076E-29    9.028510E-29   -8.389438E-28    9.034729E-29    1.104490E-29    2.667760E-31    4.566932E-33
         6.331992E-35    7.395937E-37    6.773311E-39    4.529771E-41    2.162779E-43    7.267149E-46    1.625553E-48    2.101513E-51    8.977216E-55   -7.782164E-58
          0.00000    
   2     8.615446E-58    1.296594E-54    1.047901E-51    5.686033E-49    2.281166E-46    7.098292E-44    1.756464E-41    3.498619E-39    5.631357E-37    7.306294E-35
         7.572907E-33    6.154325E-31    3.755169E-29    1.491327E-27    1.298200E-26   -1.054936E-25    1.299094E-26    1.493865E-27    3.762217E-29    6.746956E-31
         1.005659E-32    1.294637E-34    1.333107E-36    1.020735E-38    5.722890E-41    2.351046E-43    6.895008E-46    1.343471E-48    1.428256E-51    9.485490E-56
        -1.295784E-57
   3     1.368089E-54    1.047901E-51    5.601292E-49    2.269809E-46    7.280324E-44    1.892191E-41    4.032857E-39    7.079705E-37    1.022581E-34    1.208073E-32
         1.154174E-30    8.739074E-29    5.024735E-27    1.917958E-25    1.767531E-24   -1.249777E-23    1.768628E-24    1.919561E-25    5.039527E-27    9.354836E-29
         1.472915E-30    2.062805E-32    2.369129E-34    2.056503E-36    1.330702E-38    6.505268E-41    2.394995E-43    6.442230E-46    1.178020E-48    1.175456E-51
        -1.255180E-55
   4     1.107961E-51    5.686033E-49    2.269809E-46    7.338167E-44    1.962400E-41    4.387190E-39    8.231300E-37    1.294880E-34    1.699613E-32    1.845102E-30
         1.634266E-28    1.155466E-26    6.248618E-25    2.278342E-23    2.191110E-22   -1.347843E-21    2.192039E-22    2.278039E-23    6.262339E-25    1.195970E-26
         1.952124E-28    2.931931E-30    3.738433E-32    3.662512E-34    2.704410E-36    1.539893E-38    6.863428E-41    2.382767E-43    6.296244E-46    1.197510E-48
         1.397653E-51
   5     5.911691E-49    2.281166E-46    7.280324E-44    1.962400E-41    4.511150E-39    8.870491E-37    1.489799E-34    2.126677E-32    2.559726E-30    2.568241E-28
         2.113629E-26    1.392580E-24    7.027784E-23    2.410173E-21    2.316497E-20   -1.269345E-19    2.316287E-20    2.410407E-21    7.027774E-23    1.392051E-24
         2.302635E-26    3.621085E-28    5.103621E-30    5.653157E-32    4.742619E-34    3.097366E-36    1.622483E-38    6.903322E-41    2.383966E-43    6.595335E-46
         1.411816E-48
   6     2.293378E-46    7.098292E-44    1.892191E-41    4.387190E-39    8.870491E-37    1.560731E-34    2.376723E-32    3.107213E-30    3.449714E-28    3.206369E-26
         2.447176E-24    1.490660E-22    6.895398E-21    2.146829E-19    1.760463E-18   -9.872296E-18    1.760431E-18    2.146698E-19    6.893337E-21    1.485914E-22
         2.432866E-24    3.793036E-26    5.804781E-28    7.322000E-30    7.012569E-32    5.218178E-34    3.145256E-36    1.577643E-38    6.669233E-41    2.383423E-43
         7.153988E-46
   7     6.783895E-44    1.756464E-41    4.032857E-39    8.231300E-37    1.489799E-34    2.376723E-32    3.313278E-30    3.991592E-28    4.098310E-26    3.522837E-24
         2.474480E-22    1.369173E-20    5.584545E-19    1.442207E-17    1.366127E-17   -6.014625E-16    1.366409E-17    1.442176E-17    5.584742E-19    1.367715E-20
         2.449635E-22    3.474240E-24    5.296928E-26    7.581523E-28    8.407780E-30    7.165347E-32    4.925024E-34    2.841148E-36    1.408740E-38    6.080414E-41
         2.295404E-43
   8     1.567481E-41    3.498619E-39    7.079705E-37    1.294880E-34    2.126677E-32    3.107213E-30    3.991592E-28    4.444632E-26    4.214792E-24    3.326306E-22
         2.113783E-20    1.023442E-18    3.344335E-17    2.959755E-17   -2.833132E-15   -1.073708E-14   -2.833040E-15    2.957400E-17    3.344993E-17    1.024113E-18
         2.108858E-20    3.262077E-22    4.129994E-24    6.024768E-26    7.751490E-28    7.667743E-30    6.030281E-32    3.962417E-34    2.251393E-36    1.129813E-38
         5.071153E-41
   9     2.860076E-39    5.631357E-37    1.022581E-34    1.699613E-32    2.559726E-30    3.449714E-28    4.098310E-26    4.214792E-24    3.666713E-22    2.613171E-20
         1.448572E-18    5.602013E-17    5.112055E-17   -8.555459E-15   -1.203391E-13    3.142916E-14   -1.203413E-13   -8.556135E-15    5.092036E-17    5.607584E-17
         1.451068E-18    2.602974E-20    3.575326E-22    4.126123E-24    5.428904E-26    6.151845E-28    5.547811E-30    4.141168E-32    2.666381E-34    1.523961E-36
         7.880163E-39
  10     4.128787E-37    7.306294E-35    1.208073E-32    1.845102E-30    2.568241E-28    3.206369E-26    3.522837E-24    3.326306E-22    2.613171E-20    1.622787E-18
         7.170101E-17    6.457017E-17   -1.652856E-14   -2.912188E-13   -2.131247E-12    5.317852E-11   -2.131484E-12   -2.911586E-13   -1.655043E-14    6.404229E-17
         7.185762E-17    1.626610E-18    2.602157E-20    3.253263E-22    3.466480E-24    3.921615E-26    3.883985E-28    3.231907E-30    2.322900E-32    1.486151E-34
         8.662194E-37
  11     4.686901E-35    7.572907E-33    1.154174E-30    1.634266E-28    2.113629E-26    2.447176E-24    2.474480E-22    2.113783E-20    1.448572E-18    7.170101E-17
         6.862009E-17   -2.258187E-14   -4.752787E-13   -5.638764E-12    3.188479E-10    8.624578E-09    3.188520E-10   -5.641768E-12   -4.743480E-13   -2.269682E-14
         6.820544E-17    7.187367E-17    1.451488E-18    2.107748E-20    2.442448E-22    2.427941E-24    2.361356E-26    2.061020E-28    1.592478E-30    1.109137E-32
         7.112902E-35
  12     4.112691E-33    6.154325E-31    8.739074E-29    1.155466E-26    1.392580E-24    1.490660E-22    1.369173E-20    1.023442E-18    5.602013E-17    6.457017E-17
        -2.258187E-14   -5.560727E-13   -7.857914E-12    8.534739E-10    6.349309E-08    4.458972E-06    6.349304E-08    8.535205E-10   -7.878348E-12   -5.532798E-13
        -2.271737E-14    6.395626E-17    5.609263E-17    1.024384E-18    1.367279E-20    1.483634E-22    1.390943E-24    1.210673E-26    9.603779E-29    7.013849E-31
         4.800291E-33
  13     2.669507E-31    3.755169E-29    5.024735E-27    6.248618E-25    7.027784E-23    6.895398E-21    5.584545E-19    3.344335E-17    5.112055E-17   -1.652856E-14
        -4.752787E-13   -7.857914E-12    1.165312E-09    1.504282E-07    2.160589E-05    1.510114E-03    2.160589E-05    1.504277E-07    1.165501E-09   -7.883318E-12
        -4.739748E-13   -1.656080E-14    5.081518E-17    3.345320E-17    5.585118E-19    6.892612E-21    7.025395E-23    6.264298E-25    5.042517E-27    3.763401E-29
         2.666582E-31
  14     1.102076E-29    1.491327E-27    1.917958E-25    2.278342E-23    2.410173E-21    2.146829E-19    1.442207E-17    2.959755E-17   -8.555459E-15   -2.912188E-13
        -5.638764E-12    8.534739E-10    1.504282E-07    3.400073E-05    4.480802E-03    0.288124        4.480802E-03    3.400073E-05    1.504276E-07    8.535414E-10
        -5.642960E-12   -2.911247E-13   -8.556719E-15    2.955868E-17    1.442176E-17    2.146699E-19    2.410446E-21    2.277919E-23    1.920002E-25    1.494598E-27
         1.105221E-29
  15     9.028510E-29    1.298200E-26    1.767531E-24    2.191110E-22    2.316497E-20    1.760463E-18    1.366127E-17   -2.833132E-15   -1.203391E-13   -2.131247E-12
         3.188479E-10    6.349309E-08    2.160589E-05    4.480802E-03    0.453291         12.6010        0.453291        4.480802E-03    2.160589E-05    6.349302E-08
         3.188533E-10   -2.131544E-12   -1.203419E-13   -2.833026E-15    1.366453E-17    1.760427E-18    2.316261E-20    2.192135E-22    1.768733E-24    1.299172E-26
         9.035216E-29
  16    -8.389438E-28   -1.054936E-25   -1.249777E-23   -1.347843E-21   -1.269345E-19   -9.872296E-18   -6.014625E-16   -1.073708E-14    3.142916E-14    5.317852E-11
         8.624578E-09    4.458972E-06    1.510114E-03    0.288124         12.6010         62.4611         12.6010        0.288124        1.510114E-03    4.458972E-06
         8.624578E-09    5.317852E-11    3.142923E-14   -1.073708E-14   -6.014625E-16   -9.872298E-18   -1.269345E-19   -1.347843E-21   -1.249777E-23   -1.054936E-25
        -8.389439E-28
  17     9.034729E-29    1.299094E-26    1.768628E-24    2.192039E-22    2.316287E-20    1.760431E-18    1.366409E-17   -2.833040E-15   -1.203413E-13   -2.131484E-12
         3.188520E-10    6.349304E-08    2.160589E-05    4.480802E-03    0.453291         12.6010        0.453291        4.480802E-03    2.160589E-05    6.349309E-08
         3.188479E-10   -2.131247E-12   -1.203391E-13   -2.833132E-15    1.366126E-17    1.760463E-18    2.316498E-20    2.191110E-22    1.767531E-24    1.298200E-26
         9.028514E-29
  18     1.104490E-29    1.493865E-27    1.919561E-25    2.278039E-23    2.410407E-21    2.146698E-19    1.442176E-17    2.957400E-17   -8.556135E-15   -2.911586E-13
        -5.641768E-12    8.535205E-10    1.504277E-07    3.400073E-05    4.480802E-03    0.288124        4.480802E-03    3.400073E-05    1.504282E-07    8.534739E-10
        -5.638764E-12   -2.912188E-13   -8.555459E-15    2.959754E-17    1.442207E-17    2.146829E-19    2.410174E-21    2.278342E-23    1.917959E-25    1.491327E-27
         1.102076E-29
  19     2.667760E-31    3.762217E-29    5.039527E-27    6.262339E-25    7.027774E-23    6.893337E-21    5.584742E-19    3.344993E-17    5.092036E-17   -1.655043E-14
        -4.743480E-13   -7.878348E-12    1.165501E-09    1.504276E-07    2.160589E-05    1.510114E-03    2.160589E-05    1.504282E-07    1.165312E-09   -7.857914E-12
        -4.752787E-13   -1.652856E-14    5.112055E-17    3.344335E-17    5.584546E-19    6.895398E-21    7.027785E-23    6.248619E-25    5.024735E-27    3.755169E-29
         2.669507E-31
  20     4.566932E-33    6.746956E-31    9.354836E-29    1.195970E-26    1.392051E-24    1.485914E-22    1.367715E-20    1.024113E-18    5.607584E-17    6.404228E-17
        -2.269682E-14   -5.532798E-13   -7.883318E-12    8.535414E-10    6.349302E-08    4.458972E-06    6.349309E-08    8.534739E-10   -7.857914E-12   -5.560727E-13
        -2.258187E-14    6.457017E-17    5.602013E-17    1.023442E-18    1.369173E-20    1.490660E-22    1.392580E-24    1.155466E-26    8.739075E-29    6.154325E-31
         4.112691E-33
  21     6.331992E-35    1.005659E-32    1.472915E-30    1.952124E-28    2.302635E-26    2.432866E-24    2.449635E-22    2.108858E-20    1.451068E-18    7.185762E-17
         6.820544E-17   -2.271737E-14   -4.739748E-13   -5.642960E-12    3.188533E-10    8.624578E-09    3.188479E-10   -5.638764E-12   -4.752787E-13   -2.258187E-14
         6.862010E-17    7.170101E-17    1.448572E-18    2.113783E-20    2.474480E-22    2.447176E-24    2.113629E-26    1.634266E-28    1.154174E-30    7.572907E-33
         4.686901E-35
  22     7.395937E-37    1.294637E-34    2.062805E-32    2.931931E-30    3.621085E-28    3.793036E-26    3.474240E-24    3.262077E-22    2.602974E-20    1.626610E-18
         7.187367E-17    6.395626E-17   -1.656080E-14   -2.911247E-13   -2.131544E-12    5.317852E-11   -2.131247E-12   -2.912188E-13   -1.652856E-14    6.457017E-17
         7.170101E-17    1.622787E-18    2.613171E-20    3.326306E-22    3.522837E-24    3.206369E-26    2.568241E-28    1.845102E-30    1.208073E-32    7.306294E-35
         4.128787E-37
  23     6.773311E-39    1.333107E-36    2.369129E-34    3.738433E-32    5.103621E-30    5.804781E-28    5.296928E-26    4.129994E-24    3.575326E-22    2.602157E-20
         1.451488E-18    5.609263E-17    5.081518E-17   -8.556719E-15   -1.203419E-13    3.142923E-14   -1.203391E-13   -8.555459E-15    5.112055E-17    5.602013E-17
         1.448572E-18    2.613171E-20    3.666713E-22    4.214792E-24    4.098310E-26    3.449714E-28    2.559726E-30    1.699613E-32    1.022581E-34    5.631357E-37
         2.860076E-39
  24     4.529771E-41    1.020735E-38    2.056503E-36    3.662512E-34    5.653157E-32    7.322000E-30    7.581523E-28    6.024768E-26    4.126123E-24    3.253263E-22
         2.107748E-20    1.024384E-18    3.345320E-17    2.955868E-17   -2.833026E-15   -1.073708E-14   -2.833132E-15    2.959754E-17    3.344335E-17    1.023442E-18
         2.113783E-20    3.326306E-22    4.214792E-24    4.444632E-26    3.991592E-28    3.107213E-30    2.126677E-32    1.294880E-34    7.079705E-37    3.498619E-39
         1.567481E-41
  25     2.162779E-43    5.722890E-41    1.330702E-38    2.704410E-36    4.742619E-34    7.012569E-32    8.407780E-30    7.751490E-28    5.428904E-26    3.466480E-24
         2.442448E-22    1.367279E-20    5.585118E-19    1.442176E-17    1.366453E-17   -6.014625E-16    1.366126E-17    1.442207E-17    5.584546E-19    1.369173E-20
         2.474480E-22    3.522837E-24    4.098310E-26    3.991592E-28    3.313278E-30    2.376723E-32    1.489799E-34    8.231300E-37    4.032857E-39    1.756464E-41
         6.783895E-44
  26     7.267149E-46    2.351046E-43    6.505268E-41    1.539893E-38    3.097366E-36    5.218178E-34    7.165347E-32    7.667743E-30    6.151845E-28    3.921615E-26
         2.427941E-24    1.483634E-22    6.892612E-21    2.146699E-19    1.760427E-18   -9.872298E-18    1.760463E-18    2.146829E-19    6.895398E-21    1.490660E-22
         2.447176E-24    3.206369E-26    3.449714E-28    3.107213E-30    2.376723E-32    1.560731E-34    8.870491E-37    4.387190E-39    1.892191E-41    7.098292E-44
         2.293378E-46
  27     1.625553E-48    6.895008E-46    2.394995E-43    6.863428E-41    1.622483E-38    3.145256E-36    4.925024E-34    6.030281E-32    5.547811E-30    3.883985E-28
         2.361356E-26    1.390943E-24    7.025395E-23    2.410446E-21    2.316261E-20   -1.269345E-19    2.316498E-20    2.410174E-21    7.027785E-23    1.392580E-24
         2.113629E-26    2.568241E-28    2.559726E-30    2.126677E-32    1.489799E-34    8.870491E-37    4.511150E-39    1.962399E-41    7.280324E-44    2.281166E-46
         5.911691E-49
  28     2.101513E-51    1.343471E-48    6.442230E-46    2.382767E-43    6.903322E-41    1.577643E-38    2.841148E-36    3.962417E-34    4.141168E-32    3.231907E-30
         2.061020E-28    1.210673E-26    6.264298E-25    2.277919E-23    2.192135E-22   -1.347843E-21    2.191110E-22    2.278342E-23    6.248619E-25    1.155466E-26
         1.634266E-28    1.845102E-30    1.699613E-32    1.294880E-34    8.231300E-37    4.387190E-39    1.962399E-41    7.338167E-44    2.269809E-46    5.686033E-49
         1.107961E-51
  29     8.977216E-55    1.428256E-51    1.178020E-48    6.296244E-46    2.383966E-43    6.669233E-41    1.408740E-38    2.251393E-36    2.666381E-34    2.322900E-32
         1.592478E-30    9.603779E-29    5.042517E-27    1.920002E-25    1.768733E-24   -1.249777E-23    1.767531E-24    1.917959E-25    5.024735E-27    8.739075E-29
         1.154174E-30    1.208073E-32    1.022581E-34    7.079705E-37    4.032857E-39    1.892191E-41    7.280324E-44    2.269809E-46    5.601292E-49    1.047901E-51
         1.368089E-54
  30    -7.782164E-58    9.485490E-56    1.175456E-51    1.197510E-48    6.595335E-46    2.383423E-43    6.080414E-41    1.129813E-38    1.523961E-36    1.486151E-34
         1.109137E-32    7.013849E-31    3.763401E-29    1.494598E-27    1.299172E-26   -1.054936E-25    1.298200E-26    1.491327E-27    3.755169E-29    6.154325E-31
         7.572907E-33    7.306294E-35    5.631357E-37    3.498619E-39    1.756464E-41    7.098292E-44    2.281166E-46    5.686033E-49    1.047901E-51    1.296594E-54
         8.615446E-58
  31      0.00000       -1.295784E-57   -1.255180E-55    1.397653E-51    1.411816E-48    7.153988E-46    2.295404E-43    5.071153E-41    7.880163E-39    8.662194E-37
         7.112902E-35    4.800291E-33    2.666582E-31    1.105221E-29    9.035216E-29   -8.389439E-28    9.028514E-29    1.102076E-29    2.669507E-31    4.112691E-33
         4.686901E-35    4.128787E-37    2.860076E-39    1.567481E-41    6.783895E-44    2.293378E-46    5.911691E-49    1.107961E-51    1.368089E-54    8.615446E-58
          0.00000    

 CONCENTRATION WILL BE SAVED ON UNIT 1030 AT END OF TIME STEP    3, STRESS PERIOD    1


  MASS BUDGET FOR ENTIRE MODEL AT END OF TIME STEP    3, STRESS PERIOD   1
  ---------------------------------------------------------------------------------------------------

     CUMULATIVE MASS      M       RATES FOR THIS TIME STEP      M/T          PACKAGE NAME    
     ------------------                 ------------------------                     ----------------

           IN:                                      IN:
           ---                                      ---
     STORAGE-AQUEOUS =       1.0134E-03       STORAGE-AQUEOUS =       3.6830E-05     MST                              
                 WEL =   657000000.0000                   WEL =     8640000.0000     SSM_WEL-1                        
                 CHD =           0.0000                   CHD =           0.0000     SSM_CHD-1                        

            TOTAL IN =   657000000.0010              TOTAL IN =     8640000.0000

          OUT:                                     OUT:
          ----                                     ----
     STORAGE-AQUEOUS =   657000000.0010       STORAGE-AQUEOUS =     8640000.0000     MST                              
                 WEL =           0.0000                   WEL =           0.0000     SSM_WEL-1                        
                 CHD =       2.8687E-23                   CHD =       9.7019E-25     SSM_CHD-1                        

           TOTAL OUT =   657000000.0010             TOTAL OUT =     8640000.0000

            IN - OUT =       1.8835E-05              IN - OUT =       1.3970E-07

 PERCENT DISCREPANCY =           0.00     PERCENT DISCREPANCY =           0.00




         TIME SUMMARY AT END OF TIME STEP    3 IN STRESS PERIOD    1
                    SECONDS     MINUTES      HOURS       DAYS        YEARS
                    -----------------------------------------------------------
   TIME STEP LENGTH 2.19000E+06  36500.      608.33      25.347     6.93969E-02
 STRESS PERIOD TIME 6.57000E+06 1.09500E+05  1825.0      76.042     0.20819    
         TOTAL TIME 6.57000E+06 1.09500E+05  1825.0      76.042     0.20819    


end timestep


start timestep kper="1" kstp="4" mode="normal"

 UBDSV1 SAVING  STORAGE-AQUEOUS ON UNIT   1029 AT TIME STEP      4, STRESS PERIOD      1
 UBDSV1 SAVING     FLOW-JA-FACE ON UNIT   1029 AT TIME STEP      4, STRESS PERIOD      1
 UBDSV06 SAVING  SOURCE-SINK MIX IN MODEL GWT_P06-MF6      PACKAGE GWT_P06-MF6     CONNECTED TO MODEL GWT_P06-MF6      PACKAGE SSM              ON UNIT   1029 AT TIME STEP      4, STRESS PERIOD      1
1
  CONCENTRATION IN LAYER   1 AT END OF TIME STEP   4 IN STRESS PERIOD    1
  ---------------------------------------------------------------------------

                1               2               3               4               5               6               7               8               9              10
               11              12              13              14              15              16              17              18              19              20
               21              22              23              24              25              26              27              28              29              30
               31
 ................................................................................................................................................................................................................................................................................................................................................................................................................................................................................................................
   1      0.00000        6.382186E-57    9.675198E-54    7.463425E-51    3.783559E-48    1.390654E-45    3.885102E-43    8.447735E-41    1.444525E-38    1.944772E-36
         2.047068E-34    1.654414E-32    9.821402E-31    3.704447E-29    3.247554E-28   -2.379718E-27    3.250030E-28    3.712262E-29    9.862141E-31    1.779653E-32
         2.547651E-34    3.050092E-36    2.912490E-38    2.082560E-40    1.088837E-42    4.132136E-45    1.113202E-47    2.023203E-50    2.225801E-53    1.110916E-56
          0.00000    
   2     6.382186E-57    9.169653E-54    7.059014E-51    3.639320E-48    1.383382E-45    4.065863E-43    9.469111E-41    1.767953E-38    2.654844E-36    3.195614E-34
         3.052479E-32    2.267928E-30    1.253904E-28    4.491480E-27    4.005981E-26   -2.600545E-25    4.008826E-26    4.498424E-27    1.259996E-28    2.407565E-30
         3.700077E-32    4.843328E-34    5.170503E-36    4.229733E-38    2.597421E-40    1.198745E-42    4.131440E-45    1.038908E-47    1.813353E-50    1.970307E-53
         1.020986E-56
   3     9.675198E-54    7.059014E-51    3.585142E-48    1.376559E-45    4.170528E-43    1.020264E-40    2.038563E-38    3.339474E-36    4.476670E-34    4.876810E-32
         4.262747E-30    2.924623E-28    1.506321E-26    5.100981E-25    4.565249E-24   -2.574615E-23    4.567986E-24    5.105064E-25    1.513031E-26    3.048900E-28
         4.977347E-30    7.041258E-32    8.317654E-34    7.685358E-36    5.437367E-38    2.966725E-40    1.254408E-42    4.083320E-45    1.001974E-47    1.769359E-50
         2.032520E-53
   4     7.463425E-51    3.639320E-48    1.376559E-45    4.203792E-43    1.058207E-40    2.218053E-38    3.883911E-36    5.671938E-34    6.867757E-32    6.825672E-30
         5.483185E-28    3.474651E-26    1.659050E-24    5.250542E-23    4.584853E-22   -2.145597E-21    4.586593E-22    5.251035E-23    1.663720E-24    3.543782E-26
         6.092830E-28    9.208261E-30    1.193909E-31    1.235892E-33    9.943402E-36    6.284187E-38    3.162313E-40    1.272942E-42    4.077530E-45    1.019542E-47
         1.900753E-50
   5     3.783559E-48    1.383382E-45    4.170528E-43    1.058207E-40    2.280847E-38    4.186123E-36    6.527711E-34    8.598297E-32    9.478919E-30    8.632007E-28
         6.374694E-26    3.713384E-24    1.623980E-22    4.689555E-21    3.761692E-20   -1.242579E-19    3.761393E-20    4.690378E-21    1.624584E-22    3.710301E-24
         6.675291E-26    1.061689E-27    1.497779E-29    1.729510E-31    1.570391E-33    1.133079E-35    6.631666E-38    3.190418E-40    1.267675E-42    4.140397E-45
         1.089852E-47
   6     1.390654E-45    4.065863E-43    1.020264E-40    2.218053E-38    4.186123E-36    6.839156E-34    9.611734E-32    1.151256E-29    1.160670E-27    9.688785E-26
         6.547845E-24    3.465388E-22    1.355092E-20    3.394191E-19    2.153524E-18    2.146522E-19    2.153478E-18    3.394015E-19    1.354659E-20    3.460251E-22
         6.504878E-24    1.061017E-25    1.600328E-27    2.055202E-29    2.101649E-31    1.716712E-33    1.149283E-35    6.438796E-38    3.056299E-40    1.234601E-42
         4.222237E-45
   7     3.885102E-43    9.469111E-41    2.038563E-38    3.883911E-36    6.527711E-34    9.611734E-32    1.227814E-29    1.343620E-27    1.239654E-25    9.444943E-24
         5.775417E-22    2.713811E-20    9.048752E-19    1.734932E-17    5.541326E-17   -5.766462E-16    5.541534E-17    1.734906E-17    9.048107E-19    2.711097E-20
         5.742480E-22    9.308844E-24    1.427575E-25    2.010200E-27    2.317490E-29    2.139037E-31    1.622191E-33    1.039116E-35    5.731269E-38    2.753122E-40
         1.156565E-42
   8     8.447735E-41    1.767953E-38    3.339474E-36    5.671938E-34    8.598297E-32    1.151256E-29    1.343620E-27    1.344832E-25    1.131031E-23    7.779496E-22
         4.209060E-20    1.679836E-18    4.314807E-17    1.658986E-16   -1.178328E-15   -1.794642E-14   -1.178205E-15    1.658765E-16    4.315298E-17    1.680122E-18
         4.199814E-20    7.691362E-22    1.107611E-23    1.592522E-25    2.041299E-27    2.128099E-29    1.821064E-31    1.319105E-33    8.295990E-36    4.610269E-38
         2.289258E-40
   9     1.444525E-38    2.654844E-36    4.476670E-34    6.867757E-32    9.478919E-30    1.160670E-27    1.239654E-25    1.131031E-23    8.580958E-22    5.213442E-20
         2.390312E-18    7.388769E-17    3.395739E-16   -3.720225E-15   -1.737689E-13   -7.737867E-13   -1.737700E-13   -3.722000E-15    3.395433E-16    7.394229E-17
         2.391620E-18    5.194591E-20    8.455050E-22    1.106435E-23    1.448206E-25    1.664126E-27    1.591681E-29    1.291069E-31    9.127509E-34    5.750188E-36
         3.281827E-38
  10     1.944772E-36    3.195614E-34    4.876810E-32    6.825672E-30    8.632007E-28    9.688785E-26    9.444943E-24    7.779496E-22    5.213442E-20    2.681598E-18
         9.515600E-17    5.057340E-16   -7.353042E-15   -4.236181E-13   -4.835448E-12    1.103779E-10   -4.835756E-12   -4.235493E-13   -7.385802E-15    5.062754E-16
         9.531543E-17    2.683462E-18    5.193236E-20    7.679208E-22    9.286149E-24    1.081080E-25    1.110401E-27    9.847390E-30    7.670734E-32    5.363887E-34
         3.432247E-36
  11     2.047068E-34    3.052479E-32    4.262747E-30    5.483185E-28    6.374694E-26    6.547845E-24    5.775417E-22    4.209060E-20    2.390312E-18    9.515600E-17
         5.747814E-16   -1.027015E-14   -6.763117E-13   -9.933009E-12    7.627075E-10    2.966408E-08    7.627125E-10   -9.936736E-12   -6.753069E-13   -1.042922E-14
         5.765640E-16    9.533146E-17    2.391839E-18    4.197923E-20    5.732632E-22    6.490827E-24    6.767058E-26    6.296992E-28    5.235592E-30    3.953745E-32
         2.762557E-34
  12     1.654414E-32    2.267928E-30    2.924623E-28    3.474651E-26    3.713384E-24    3.465388E-22    2.713811E-20    1.679836E-18    7.388769E-17    5.057340E-16
        -1.027015E-14   -7.838962E-13   -1.217402E-11    2.220554E-09    2.114281E-07    1.300101E-05    2.114281E-07    2.220610E-09   -1.219845E-11   -7.807227E-13
        -1.045676E-14    5.064824E-16    7.395903E-17    1.680302E-18    2.710370E-20    3.457387E-22    3.707289E-24    3.567953E-26    3.097355E-28    2.467112E-30
         1.838560E-32
  13     9.821402E-31    1.253904E-28    1.506321E-26    1.659050E-24    1.623980E-22    1.355092E-20    9.048752E-19    4.314807E-17    3.395739E-16   -7.353042E-15
        -6.763117E-13   -1.217402E-11    3.116960E-09    4.959654E-07    6.239092E-05    3.870473E-03    6.239092E-05    4.959648E-07    3.117181E-09   -1.220428E-11
        -6.748963E-13   -7.400393E-15    3.395239E-16    4.315613E-17    9.048302E-19    1.354536E-20    1.624407E-22    1.664797E-24    1.514892E-26    1.261828E-28
         9.875366E-31
  14     3.704447E-29    4.491480E-27    5.100981E-25    5.250542E-23    4.689555E-21    3.394191E-19    1.734932E-17    1.658986E-16   -3.720225E-15   -4.236181E-13
        -9.933009E-12    2.220554E-09    4.959654E-07    9.769370E-05    1.124465E-02    0.603447        1.124465E-02    9.769370E-05    4.959647E-07    2.220634E-09
        -9.938168E-12   -4.235143E-13   -3.723022E-15    1.658648E-16    1.734916E-17    3.394012E-19    4.690507E-21    5.251009E-23    5.106076E-25    4.500311E-27
         3.714490E-29
  15     3.247554E-28    4.005981E-26    4.565249E-24    4.584853E-22    3.761692E-20    2.153524E-18    5.541326E-17   -1.178328E-15   -1.737689E-13   -4.835448E-12
         7.627075E-10    2.114281E-07    6.239092E-05    1.124465E-02    0.922143         18.8420        0.922143        1.124465E-02    6.239092E-05    2.114281E-07
         7.627142E-10   -4.835835E-12   -1.737704E-13   -1.178186E-15    5.541571E-17    2.153472E-18    3.761358E-20    4.586774E-22    4.568255E-24    4.009092E-26
         3.250247E-28
  16    -2.379718E-27   -2.600545E-25   -2.574615E-23   -2.145597E-21   -1.242579E-19    2.146522E-19   -5.766462E-16   -1.794642E-14   -7.737867E-13    1.103779E-10
         2.966408E-08    1.300101E-05    3.870473E-03    0.603447         18.8420         72.9204         18.8420        0.603447        3.870473E-03    1.300101E-05
         2.966408E-08    1.103779E-10   -7.737866E-13   -1.794642E-14   -5.766465E-16    2.146490E-19   -1.242579E-19   -2.145597E-21   -2.574615E-23   -2.600545E-25
        -2.379718E-27
  17     3.250030E-28    4.008826E-26    4.567986E-24    4.586593E-22    3.761393E-20    2.153478E-18    5.541534E-17   -1.178205E-15   -1.737700E-13   -4.835756E-12
         7.627125E-10    2.114281E-07    6.239092E-05    1.124465E-02    0.922143         18.8420        0.922143        1.124465E-02    6.239092E-05    2.114281E-07
         7.627075E-10   -4.835448E-12   -1.737689E-13   -1.178328E-15    5.541325E-17    2.153524E-18    3.761692E-20    4.584855E-22    4.565251E-24    4.005982E-26
         3.247556E-28
  18     3.712262E-29    4.498424E-27    5.105064E-25    5.251035E-23    4.690378E-21    3.394015E-19    1.734906E-17    1.658765E-16   -3.722000E-15   -4.235493E-13
        -9.936736E-12    2.220610E-09    4.959648E-07    9.769370E-05    1.124465E-02    0.603447        1.124465E-02    9.769370E-05    4.959654E-07    2.220554E-09
        -9.933009E-12   -4.236181E-13   -3.720225E-15    1.658986E-16    1.734932E-17    3.394191E-19    4.689555E-21    5.250542E-23    5.100981E-25    4.491480E-27
         3.704447E-29
  19     9.862141E-31    1.259996E-28    1.513031E-26    1.663720E-24    1.624584E-22    1.354659E-20    9.048107E-19    4.315298E-17    3.395433E-16   -7.385802E-15
        -6.753069E-13   -1.219845E-11    3.117181E-09    4.959647E-07    6.239092E-05    3.870473E-03    6.239092E-05    4.959654E-07    3.116960E-09   -1.217402E-11
        -6.763117E-13   -7.353042E-15    3.395739E-16    4.314807E-17    9.048753E-19    1.355092E-20    1.623981E-22    1.659050E-24    1.506321E-26    1.253904E-28
         9.821402E-31
  20     1.779653E-32    2.407565E-30    3.048900E-28    3.543782E-26    3.710301E-24    3.460251E-22    2.711097E-20    1.680122E-18    7.394229E-17    5.062754E-16
        -1.042922E-14   -7.807227E-13   -1.220428E-11    2.220634E-09    2.114281E-07    1.300101E-05    2.114281E-07    2.220554E-09   -1.217402E-11   -7.838962E-13
        -1.027015E-14    5.057340E-16    7.388769E-17    1.679836E-18    2.713811E-20    3.465388E-22    3.713385E-24    3.474651E-26    2.924623E-28    2.267928E-30
         1.654414E-32
  21     2.547651E-34    3.700077E-32    4.977347E-30    6.092830E-28    6.675291E-26    6.504878E-24    5.742480E-22    4.199814E-20    2.391620E-18    9.531543E-17
         5.765640E-16   -1.045676E-14   -6.748963E-13   -9.938168E-12    7.627142E-10    2.966408E-08    7.627075E-10   -9.933009E-12   -6.763117E-13   -1.027015E-14
         5.747814E-16    9.515600E-17    2.390312E-18    4.209060E-20    5.775417E-22    6.547845E-24    6.374694E-26    5.483185E-28    4.262747E-30    3.052479E-32
         2.047068E-34
  22     3.050092E-36    4.843328E-34    7.041258E-32    9.208261E-30    1.061689E-27    1.061017E-25    9.308844E-24    7.691362E-22    5.194591E-20    2.683462E-18
         9.533146E-17    5.064824E-16   -7.400393E-15   -4.235143E-13   -4.835835E-12    1.103779E-10   -4.835448E-12   -4.236181E-13   -7.353042E-15    5.057340E-16
         9.515600E-17    2.681598E-18    5.213442E-20    7.779496E-22    9.444942E-24    9.688785E-26    8.632007E-28    6.825672E-30    4.876810E-32    3.195614E-34
         1.944772E-36
  23     2.912490E-38    5.170503E-36    8.317654E-34    1.193909E-31    1.497779E-29    1.600328E-27    1.427575E-25    1.107611E-23    8.455050E-22    5.193236E-20
         2.391839E-18    7.395903E-17    3.395239E-16   -3.723022E-15   -1.737704E-13   -7.737866E-13   -1.737689E-13   -3.720225E-15    3.395739E-16    7.388769E-17
         2.390312E-18    5.213442E-20    8.580958E-22    1.131031E-23    1.239654E-25    1.160670E-27    9.478919E-30    6.867757E-32    4.476670E-34    2.654844E-36
         1.444525E-38
  24     2.082560E-40    4.229733E-38    7.685358E-36    1.235892E-33    1.729510E-31    2.055202E-29    2.010200E-27    1.592522E-25    1.106435E-23    7.679208E-22
         4.197923E-20    1.680302E-18    4.315613E-17    1.658648E-16   -1.178186E-15   -1.794642E-14   -1.178328E-15    1.658986E-16    4.314807E-17    1.679836E-18
         4.209060E-20    7.779496E-22    1.131031E-23    1.344832E-25    1.343620E-27    1.151256E-29    8.598297E-32    5.671938E-34    3.339474E-36    1.767953E-38
         8.447735E-41
  25     1.088837E-42    2.597421E-40    5.437367E-38    9.943402E-36    1.570391E-33    2.101649E-31    2.317490E-29    2.041299E-27    1.448206E-25    9.286149E-24
         5.732632E-22    2.710370E-20    9.048302E-19    1.734916E-17    5.541571E-17   -5.766465E-16    5.541325E-17    1.734932E-17    9.048753E-19    2.713811E-20
         5.775417E-22    9.444942E-24    1.239654E-25    1.343620E-27    1.227814E-29    9.611734E-32    6.527711E-34    3.883911E-36    2.038563E-38    9.469111E-41
         3.885102E-43
  26     4.132136E-45    1.198745E-42    2.966725E-40    6.284187E-38    1.133079E-35    1.716712E-33    2.139037E-31    2.128099E-29    1.664126E-27    1.081080E-25
         6.490827E-24    3.457387E-22    1.354536E-20    3.394012E-19    2.153472E-18    2.146490E-19    2.153524E-18    3.394191E-19    1.355092E-20    3.465388E-22
         6.547845E-24    9.688785E-26    1.160670E-27    1.151256E-29    9.611734E-32    6.839156E-34    4.186123E-36    2.218053E-38    1.020264E-40    4.065863E-43
         1.390654E-45
  27     1.113202E-47    4.131440E-45    1.254408E-42    3.162313E-40    6.631666E-38    1.149283E-35    1.622191E-33    1.821064E-31    1.591681E-29    1.110401E-27
         6.767058E-26    3.707289E-24    1.624407E-22    4.690507E-21    3.761358E-20   -1.242579E-19    3.761692E-20    4.689555E-21    1.623981E-22    3.713385E-24
         6.374694E-26    8.632007E-28    9.478919E-30    8.598297E-32    6.527711E-34    4.186123E-36    2.280847E-38    1.058207E-40    4.170528E-43    1.383382E-45
         3.783559E-48
  28     2.023203E-50    1.038908E-47    4.083320E-45    1.272942E-42    3.190418E-40    6.438796E-38    1.039116E-35    1.319105E-33    1.291069E-31    9.847390E-30
         6.296992E-28    3.567953E-26    1.664797E-24    5.251009E-23    4.586774E-22   -2.145597E-21    4.584855E-22    5.250542E-23    1.659050E-24    3.474651E-26
         5.483185E-28    6.825672E-30    6.867757E-32    5.671938E-34    3.883911E-36    2.218053E-38    1.058207E-40    4.203792E-43    1.376559E-45    3.639320E-48
         7.463425E-51
  29     2.225801E-53    1.813353E-50    1.001974E-47    4.077530E-45    1.267675E-42    3.056299E-40    5.731269E-38    8.295990E-36    9.127509E-34    7.670734E-32
         5.235592E-30    3.097355E-28    1.514892E-26    5.106076E-25    4.568255E-24   -2.574615E-23    4.565251E-24    5.100981E-25    1.506321E-26    2.924623E-28
         4.262747E-30    4.876810E-32    4.476670E-34    3.339474E-36    2.038563E-38    1.020264E-40    4.170528E-43    1.376559E-45    3.585142E-48    7.059014E-51
         9.675198E-54
  30     1.110916E-56    1.970307E-53    1.769359E-50    1.019542E-47    4.140397E-45    1.234601E-42    2.753122E-40    4.610269E-38    5.750188E-36    5.363887E-34
         3.953745E-32    2.467112E-30    1.261828E-28    4.500311E-27    4.009092E-26   -2.600545E-25    4.005982E-26    4.491480E-27    1.253904E-28    2.267928E-30
         3.052479E-32    3.195614E-34    2.654844E-36    1.767953E-38    9.469111E-41    4.065863E-43    1.383382E-45    3.639320E-48    7.059014E-51    9.169653E-54
         6.382186E-57
  31      0.00000        1.020986E-56    2.032520E-53    1.900753E-50    1.089852E-47    4.222237E-45    1.156565E-42    2.289258E-40    3.281827E-38    3.432247E-36
         2.762557E-34    1.838560E-32    9.875366E-31    3.714490E-29    3.250247E-28   -2.379718E-27    3.247556E-28    3.704447E-29    9.821402E-31    1.654414E-32
         2.047068E-34    1.944772E-36    1.444525E-38    8.447735E-41    3.885102E-43    1.390654E-45    3.783559E-48    7.463425E-51    9.675198E-54    6.382186E-57
          0.00000    

 CONCENTRATION WILL BE SAVED ON UNIT 1030 AT END OF TIME STEP    4, STRESS PERIOD    1


  MASS BUDGET FOR ENTIRE MODEL AT END OF TIME STEP    4, STRESS PERIOD   1
  ---------------------------------------------------------------------------------------------------

     CUMULATIVE MASS      M       RATES FOR THIS TIME STEP      M/T          PACKAGE NAME    
     ------------------                 ------------------------                     ----------------

           IN:                                      IN:
           ---                                      ---
     STORAGE-AQUEOUS =       1.5679E-03       STORAGE-AQUEOUS =       2.1876E-05     MST                              
                 WEL =   876000000.0000                   WEL =     8640000.0000     SSM_WEL-1                        
                 CHD =           0.0000                   CHD =           0.0000     SSM_CHD-1                        

            TOTAL IN =   876000000.0016              TOTAL IN =     8640000.0000

          OUT:                                     OUT:
          ----                                     ----
     STORAGE-AQUEOUS =   876000000.0015       STORAGE-AQUEOUS =     8640000.0000     MST                              
                 WEL =           0.0000                   WEL =           0.0000     SSM_WEL-1                        
                 CHD =       1.1654E-22                   CHD =       3.4658E-24     SSM_CHD-1                        

           TOTAL OUT =   876000000.0015             TOTAL OUT =     8640000.0000

            IN - OUT =       2.0027E-05              IN - OUT =       4.4703E-08

 PERCENT DISCREPANCY =           0.00     PERCENT DISCREPANCY =           0.00




         TIME SUMMARY AT END OF TIME STEP    4 IN STRESS PERIOD    1
                    SECONDS     MINUTES      HOURS       DAYS        YEARS
                    -----------------------------------------------------------
   TIME STEP LENGTH 2.19000E+06  36500.      608.33      25.347     6.93969E-02
 STRESS PERIOD TIME 8.76000E+06 1.46000E+05  2433.3      101.39     0.27759    
         TOTAL TIME 8.76000E+06 1.46000E+05  2433.3      101.39     0.27759    


end timestep


start timestep kper="1" kstp="5" mode="normal"

 UBDSV1 SAVING  STORAGE-AQUEOUS ON UNIT   1029 AT TIME STEP      5, STRESS PERIOD      1
 UBDSV1 SAVING     FLOW-JA-FACE ON UNIT   1029 AT TIME STEP      5, STRESS PERIOD      1
 UBDSV06 SAVING  SOURCE-SINK MIX IN MODEL GWT_P06-MF6      PACKAGE GWT_P06-MF6     CONNECTED TO MODEL GWT_P06-MF6      PACKAGE SSM              ON UNIT   1029 AT TIME STEP      5, STRESS PERIOD      1
1
  CONCENTRATION IN LAYER   1 AT END OF TIME STEP   5 IN STRESS PERIOD    1
  ---------------------------------------------------------------------------

                1               2               3               4               5               6               7               8               9              10
               11              12              13              14              15              16              17              18              19              20
               21              22              23              24              25              26              27              28              29              30
               31
 ................................................................................................................................................................................................................................................................................................................................................................................................................................................................................................................
   1      0.00000        3.747695E-56    5.449661E-53    4.027134E-50    1.953269E-47    6.861085E-45    1.830209E-42    3.798055E-40    6.199942E-38    7.980739E-36
         8.062424E-34    6.305043E-32    3.692496E-30    1.477331E-28    2.828671E-27    1.030046E-26    2.828618E-27    1.475208E-28    3.659689E-30    6.333597E-32
         8.559942E-34    9.718918E-36    9.238890E-38    6.930430E-40    3.923044E-42    1.641685E-44    4.971249E-47    1.043868E-49    1.383994E-52    8.989390E-56
          0.00000    
   2     3.747695E-56    5.164920E-53    3.808973E-50    1.878867E-47    6.825667E-45    1.915601E-42    4.258191E-40    7.590882E-38    1.090091E-35    1.259552E-33
         1.163644E-31    8.483867E-30    4.744085E-28    1.881294E-26    4.209291E-25    2.118687E-24    4.209002E-25    1.878292E-26    4.702424E-28    8.392071E-30
         1.181459E-31    1.418946E-33    1.477963E-35    1.264666E-37    8.451553E-40    4.322401E-42    1.673650E-44    4.811158E-47    9.839271E-50    1.304145E-52
         8.958261E-56
   3     5.449661E-53    3.808973E-50    1.850924E-47    6.792261E-45    1.965065E-42    4.588690E-40    8.754837E-38    1.371723E-35    1.765476E-33    1.860344E-31
         1.594527E-29    1.099630E-27    5.968861E-26    2.403677E-24    6.341706E-23    3.935970E-22    6.341126E-23    2.400421E-24    5.927336E-26    1.076325E-27
         1.551440E-29    1.921730E-31    2.138373E-33    2.045882E-35    1.581485E-37    9.616032E-40    4.571073E-42    1.687858E-44    4.756064E-47    9.832214E-50
         1.371807E-52
   4     4.027134E-50    1.878867E-47    6.792261E-45    1.980788E-42    4.759654E-40    9.526894E-38    1.595711E-35    2.237651E-33    2.621136E-31    2.554457E-29
         2.060445E-27    1.366113E-25    7.342060E-24    3.063891E-22    9.497426E-21    6.732815E-20    9.496688E-21    3.061662E-22    7.316772E-24    1.335904E-25
         1.945918E-27    2.419466E-29    2.779731E-31    2.903959E-33    2.554032E-35    1.811388E-37    1.028190E-39    4.676585E-42    1.697744E-44    4.840401E-47
         1.042374E-49
   5     1.953269E-47    6.825667E-45    1.965065E-42    4.759654E-40    9.797001E-38    1.720052E-35    2.575759E-33    3.282603E-31    3.548745E-29    3.244191E-27
         2.502727E-25    1.627333E-23    8.862611E-22    3.896548E-20    1.392756E-18    1.065750E-17    1.392721E-18    3.895814E-20    8.848792E-22    1.607221E-23
         2.358337E-25    2.885553E-27    3.267794E-29    3.585774E-31    3.519027E-33    2.869527E-35    1.907744E-37    1.038200E-39    4.646421E-42    1.704965E-44
         5.043191E-47
   6     6.861085E-45    1.915601E-42    4.588690E-40    9.526894E-38    1.720052E-35    2.698815E-33    3.670019E-31    4.311009E-29    4.362842E-27    3.802172E-25
         2.861140E-23    1.867513E-21    1.054158E-19    4.910590E-18    1.801180E-19    1.610623E-16    1.794921E-19    4.910400E-18    1.053912E-19    1.859783E-21
         2.773940E-23    3.373542E-25    3.614414E-27    3.890835E-29    4.099347E-31    3.779223E-33    2.900521E-35    1.850244E-37    9.902393E-40    4.472153E-42
         1.698727E-44
   7     1.830209E-42    4.258191E-40    8.754837E-38    1.595711E-35    2.575759E-33    3.670019E-31    4.597993E-29    5.050900E-27    4.863770E-25    4.121081E-23
         3.095382E-21    2.074167E-19    1.230799E-17    5.976880E-18   -1.511369E-16   -1.418585E-15   -1.511342E-16    5.980105E-18    1.230779E-17    2.073885E-19
         3.067592E-21    3.888866E-23    4.038753E-25    3.962674E-27    4.115576E-29    4.120712E-31    3.583201E-33    2.634529E-35    1.648832E-37    8.880448E-40
         4.140501E-42
   8     3.798055E-40    7.590882E-38    1.371723E-35    2.237651E-33    3.282603E-31    4.311009E-29    5.050900E-27    5.276087E-25    4.931672E-23    4.157212E-21
         3.186039E-19    2.219919E-17    1.380817E-17   -6.884523E-16   -1.017951E-14   -7.909621E-14   -1.017906E-14   -6.883364E-16    1.384696E-17    2.220236E-17
         3.186634E-19    4.094740E-21    4.544528E-23    4.221632E-25    3.920671E-27    3.870533E-29    3.631746E-31    2.997054E-33    2.145005E-35    1.342570E-37
         7.427701E-40
   9     6.199942E-38    1.090091E-35    1.765476E-33    2.621136E-31    3.548745E-29    4.362842E-27    4.863770E-25    4.931672E-23    4.581127E-21    3.928073E-19
         3.110100E-17    2.079701E-17   -1.607061E-15   -3.427501E-14   -4.818897E-13   -3.945487E-12   -4.818793E-13   -3.427743E-14   -1.606688E-15    2.103402E-17
         3.111477E-17    3.929992E-19    4.495827E-21    4.524684E-23    3.962046E-25    3.523422E-27    3.234688E-29    2.818730E-31    2.218306E-33    1.562780E-35
         9.925908E-38
  10     7.980739E-36    1.259552E-33    1.860344E-31    2.554457E-29    3.244191E-27    3.802172E-25    4.121081E-23    4.157212E-21    3.928073E-19    3.471210E-17
         2.448737E-17   -2.569964E-15   -6.767588E-14   -1.293428E-12   -7.352966E-12    3.059435E-10   -7.353661E-12   -1.293268E-12   -6.772958E-14   -2.569575E-15
         2.512024E-17    3.473421E-17    3.930180E-19    4.087686E-21    3.852448E-23    3.291912E-25    2.809251E-27    2.390594E-29    1.940898E-31    1.465072E-33
         1.023922E-35
  11     8.062424E-34    1.163644E-31    1.594527E-29    2.060445E-27    2.502727E-25    2.861140E-23    3.095382E-21    3.186039E-19    3.110100E-17    2.448737E-17
        -2.990028E-15   -9.268459E-14   -2.199151E-12   -4.754991E-12    2.013653E-09    8.102743E-08    2.013663E-09   -4.761826E-12   -2.197249E-12   -9.294621E-14
        -2.989286E-15    2.517902E-17    3.111724E-17    3.186954E-19    3.061648E-21    2.751696E-23    2.317335E-25    1.910824E-27    1.537221E-29    1.187176E-31
         8.736376E-34
  12     6.305043E-32    8.483867E-30    1.099630E-27    1.366113E-25    1.627333E-23    1.867513E-21    2.074167E-19    2.219919E-17    2.079701E-17   -2.569964E-15
        -9.268459E-14   -2.597717E-12    3.994061E-12    5.951004E-09    5.729938E-07    3.190662E-05    5.729937E-07    5.951101E-09    3.952117E-12   -2.591943E-12
        -9.299332E-14   -2.569486E-15    2.109791E-17    2.220383E-17    2.073997E-19    1.857668E-21    1.600670E-23    1.325130E-25    1.067296E-27    8.350748E-30
         6.339416E-32
  13     3.692496E-30    4.744085E-28    5.968861E-26    7.342060E-24    8.862611E-22    1.054158E-19    1.230799E-17    1.380817E-17   -1.607061E-15   -6.767588E-14
        -2.199151E-12    3.994061E-12    8.410594E-09    1.338603E-06    1.517186E-04    8.455507E-03    1.517186E-04    1.338602E-06    8.410945E-09    3.942284E-12
        -2.196465E-12   -6.775640E-14   -1.606665E-15    1.386126E-17    1.230796E-17    1.053897E-19    8.844989E-22    7.308221E-24    5.911525E-26    4.685024E-28
         3.644494E-30
  14     1.477331E-28    1.881294E-26    2.403677E-24    3.063891E-22    3.896548E-20    4.910590E-18    5.976880E-18   -6.884523E-16   -3.427501E-14   -1.293428E-12
        -4.754991E-12    5.951004E-09    1.338603E-06    2.363788E-04    2.407495E-02     1.08970        2.407495E-02    2.363788E-04    1.338602E-06    5.951140E-09
        -4.764458E-12   -1.293187E-12   -3.427957E-14   -6.883103E-16    5.981257E-18    4.910375E-18    3.895670E-20    3.061165E-22    2.399618E-24    1.877520E-26
         1.474653E-28
  15     2.828671E-27    4.209291E-25    6.341706E-23    9.497426E-21    1.392756E-18    1.801180E-19   -1.511369E-16   -1.017951E-14   -4.818897E-13   -7.352966E-12
         2.013653E-09    5.729938E-07    1.517186E-04    2.407495E-02     1.62566         25.3915         1.62566        2.407495E-02    1.517186E-04    5.729937E-07
         2.013666E-09   -7.353838E-12   -4.818775E-13   -1.017898E-14   -1.511336E-16    1.794078E-19    1.392716E-18    9.496604E-21    6.341063E-23    4.208972E-25
         2.828614E-27
  16     1.030046E-26    2.118687E-24    3.935970E-22    6.732815E-20    1.065750E-17    1.610623E-16   -1.418585E-15   -7.909621E-14   -3.945487E-12    3.059435E-10
         8.102743E-08    3.190662E-05    8.455507E-03     1.08970         25.3915         80.4655         25.3915         1.08970        8.455507E-03    3.190662E-05
         8.102743E-08    3.059435E-10   -3.945486E-12   -7.909620E-14   -1.418585E-15    1.610623E-16    1.065750E-17    6.732815E-20    3.935970E-22    2.118687E-24
         1.030046E-26
  17     2.828618E-27    4.209002E-25    6.341126E-23    9.496688E-21    1.392721E-18    1.794921E-19   -1.511342E-16   -1.017906E-14   -4.818793E-13   -7.353661E-12
         2.013663E-09    5.729937E-07    1.517186E-04    2.407495E-02     1.62566         25.3915         1.62566        2.407495E-02    1.517186E-04    5.729938E-07
         2.013653E-09   -7.352965E-12   -4.818897E-13   -1.017951E-14   -1.511369E-16    1.801168E-19    1.392756E-18    9.497426E-21    6.341706E-23    4.209291E-25
         2.828672E-27
  18     1.475208E-28    1.878292E-26    2.400421E-24    3.061662E-22    3.895814E-20    4.910400E-18    5.980105E-18   -6.883364E-16   -3.427743E-14   -1.293268E-12
        -4.761826E-12    5.951101E-09    1.338602E-06    2.363788E-04    2.407495E-02     1.08970        2.407495E-02    2.363788E-04    1.338603E-06    5.951004E-09
        -4.754990E-12   -1.293428E-12   -3.427501E-14   -6.884524E-16    5.976877E-18    4.910590E-18    3.896548E-20    3.063891E-22    2.403677E-24    1.881294E-26
         1.477331E-28
  19     3.659689E-30    4.702424E-28    5.927336E-26    7.316772E-24    8.848792E-22    1.053912E-19    1.230779E-17    1.384696E-17   -1.606688E-15   -6.772958E-14
        -2.197249E-12    3.952117E-12    8.410945E-09    1.338602E-06    1.517186E-04    8.455507E-03    1.517186E-04    1.338603E-06    8.410594E-09    3.994061E-12
        -2.199151E-12   -6.767588E-14   -1.607061E-15    1.380816E-17    1.230799E-17    1.054158E-19    8.862611E-22    7.342060E-24    5.968861E-26    4.744085E-28
         3.692496E-30
  20     6.333597E-32    8.392071E-30    1.076325E-27    1.335904E-25    1.607221E-23    1.859783E-21    2.073885E-19    2.220236E-17    2.103402E-17   -2.569575E-15
        -9.294621E-14   -2.591943E-12    3.942284E-12    5.951140E-09    5.729937E-07    3.190662E-05    5.729938E-07    5.951004E-09    3.994061E-12   -2.597717E-12
        -9.268459E-14   -2.569964E-15    2.079701E-17    2.219919E-17    2.074167E-19    1.867513E-21    1.627333E-23    1.366113E-25    1.099630E-27    8.483867E-30
         6.305043E-32
  21     8.559942E-34    1.181459E-31    1.551440E-29    1.945918E-27    2.358337E-25    2.773940E-23    3.067592E-21    3.186634E-19    3.111477E-17    2.512024E-17
        -2.989286E-15   -9.299332E-14   -2.196465E-12   -4.764458E-12    2.013666E-09    8.102743E-08    2.013653E-09   -4.754990E-12   -2.199151E-12   -9.268459E-14
        -2.990028E-15    2.448737E-17    3.110100E-17    3.186039E-19    3.095382E-21    2.861140E-23    2.502727E-25    2.060445E-27    1.594527E-29    1.163644E-31
         8.062424E-34
  22     9.718918E-36    1.418946E-33    1.921730E-31    2.419466E-29    2.885553E-27    3.373542E-25    3.888866E-23    4.094740E-21    3.929992E-19    3.473421E-17
         2.517902E-17   -2.569486E-15   -6.775640E-14   -1.293187E-12   -7.353838E-12    3.059435E-10   -7.352965E-12   -1.293428E-12   -6.767588E-14   -2.569964E-15
         2.448737E-17    3.471210E-17    3.928073E-19    4.157212E-21    4.121081E-23    3.802172E-25    3.244191E-27    2.554457E-29    1.860344E-31    1.259552E-33
         7.980739E-36
  23     9.238890E-38    1.477963E-35    2.138373E-33    2.779731E-31    3.267794E-29    3.614414E-27    4.038753E-25    4.544528E-23    4.495827E-21    3.930180E-19
         3.111724E-17    2.109791E-17   -1.606665E-15   -3.427957E-14   -4.818775E-13   -3.945486E-12   -4.818897E-13   -3.427501E-14   -1.607061E-15    2.079701E-17
         3.110100E-17    3.928073E-19    4.581127E-21    4.931672E-23    4.863770E-25    4.362842E-27    3.548745E-29    2.621136E-31    1.765476E-33    1.090091E-35
         6.199942E-38
  24     6.930430E-40    1.264666E-37    2.045882E-35    2.903959E-33    3.585774E-31    3.890835E-29    3.962674E-27    4.221632E-25    4.524684E-23    4.087686E-21
         3.186954E-19    2.220383E-17    1.386126E-17   -6.883103E-16   -1.017898E-14   -7.909620E-14   -1.017951E-14   -6.884524E-16    1.380816E-17    2.219919E-17
         3.186039E-19    4.157212E-21    4.931672E-23    5.276087E-25    5.050900E-27    4.311009E-29    3.282603E-31    2.237651E-33    1.371723E-35    7.590882E-38
         3.798055E-40
  25     3.923044E-42    8.451553E-40    1.581485E-37    2.554032E-35    3.519027E-33    4.099347E-31    4.115576E-29    3.920671E-27    3.962046E-25    3.852448E-23
         3.061648E-21    2.073997E-19    1.230796E-17    5.981257E-18   -1.511336E-16   -1.418585E-15   -1.511369E-16    5.976877E-18    1.230799E-17    2.074167E-19
         3.095382E-21    4.121081E-23    4.863770E-25    5.050900E-27    4.597993E-29    3.670019E-31    2.575759E-33    1.595711E-35    8.754837E-38    4.258191E-40
         1.830209E-42
  26     1.641685E-44    4.322401E-42    9.616032E-40    1.811388E-37    2.869527E-35    3.779223E-33    4.120712E-31    3.870533E-29    3.523422E-27    3.291912E-25
         2.751696E-23    1.857668E-21    1.053897E-19    4.910375E-18    1.794078E-19    1.610623E-16    1.801168E-19    4.910590E-18    1.054158E-19    1.867513E-21
         2.861140E-23    3.802172E-25    4.362842E-27    4.311009E-29    3.670019E-31    2.698815E-33    1.720052E-35    9.526894E-38    4.588690E-40    1.915601E-42
         6.861085E-45
  27     4.971249E-47    1.673650E-44    4.571073E-42    1.028190E-39    1.907744E-37    2.900521E-35    3.583201E-33    3.631746E-31    3.234688E-29    2.809251E-27
         2.317335E-25    1.600670E-23    8.844989E-22    3.895670E-20    1.392716E-18    1.065750E-17    1.392756E-18    3.896548E-20    8.862611E-22    1.627333E-23
         2.502727E-25    3.244191E-27    3.548745E-29    3.282603E-31    2.575759E-33    1.720052E-35    9.797001E-38    4.759654E-40    1.965065E-42    6.825667E-45
         1.953269E-47
  28     1.043868E-49    4.811158E-47    1.687858E-44    4.676585E-42    1.038200E-39    1.850244E-37    2.634529E-35    2.997054E-33    2.818730E-31    2.390594E-29
         1.910824E-27    1.325130E-25    7.308221E-24    3.061165E-22    9.496604E-21    6.732815E-20    9.497426E-21    3.063891E-22    7.342060E-24    1.366113E-25
         2.060445E-27    2.554457E-29    2.621136E-31    2.237651E-33    1.595711E-35    9.526894E-38    4.759654E-40    1.980788E-42    6.792261E-45    1.878867E-47
         4.027134E-50
  29     1.383994E-52    9.839271E-50    4.756064E-47    1.697744E-44    4.646421E-42    9.902393E-40    1.648832E-37    2.145005E-35    2.218306E-33    1.940898E-31
         1.537221E-29    1.067296E-27    5.911525E-26    2.399618E-24    6.341063E-23    3.935970E-22    6.341706E-23    2.403677E-24    5.968861E-26    1.099630E-27
         1.594527E-29    1.860344E-31    1.765476E-33    1.371723E-35    8.754837E-38    4.588690E-40    1.965065E-42    6.792261E-45    1.850924E-47    3.808973E-50
         5.449661E-53
  30     8.989390E-56    1.304145E-52    9.832214E-50    4.840401E-47    1.704965E-44    4.472153E-42    8.880448E-40    1.342570E-37    1.562780E-35    1.465072E-33
         1.187176E-31    8.350748E-30    4.685024E-28    1.877520E-26    4.208972E-25    2.118687E-24    4.209291E-25    1.881294E-26    4.744085E-28    8.483867E-30
         1.163644E-31    1.259552E-33    1.090091E-35    7.590882E-38    4.258191E-40    1.915601E-42    6.825667E-45    1.878867E-47    3.808973E-50    5.164920E-53
         3.747695E-56
  31      0.00000        8.958261E-56    1.371807E-52    1.042374E-49    5.043191E-47    1.698727E-44    4.140501E-42    7.427701E-40    9.925908E-38    1.023922E-35
         8.736376E-34    6.339416E-32    3.644494E-30    1.474653E-28    2.828614E-27    1.030046E-26    2.828672E-27    1.477331E-28    3.692496E-30    6.305043E-32
         8.062424E-34    7.980739E-36    6.199942E-38    3.798055E-40    1.830209E-42    6.861085E-45    1.953269E-47    4.027134E-50    5.449661E-53    3.747695E-56
          0.00000    

 CONCENTRATION WILL BE SAVED ON UNIT 1030 AT END OF TIME STEP    5, STRESS PERIOD    1


  MASS BUDGET FOR ENTIRE MODEL AT END OF TIME STEP    5, STRESS PERIOD   1
  ---------------------------------------------------------------------------------------------------

     CUMULATIVE MASS      M       RATES FOR THIS TIME STEP      M/T          PACKAGE NAME    
     ------------------                 ------------------------                     ----------------

           IN:                                      IN:
           ---                                      ---
     STORAGE-AQUEOUS =       1.9277E-03       STORAGE-AQUEOUS =       1.4194E-05     MST                              
                 WEL =  1095000000.0000                   WEL =     8640000.0000     SSM_WEL-1                        
                 CHD =           0.0000                   CHD =           0.0000     SSM_CHD-1                        

            TOTAL IN =  1095000000.0019              TOTAL IN =     8640000.0000

          OUT:                                     OUT:
          ----                                     ----
     STORAGE-AQUEOUS =  1095000000.0019       STORAGE-AQUEOUS =     8640000.0000     MST                              
                 WEL =           0.0000                   WEL =           0.0000     SSM_WEL-1                        
                 CHD =       2.0981E-21                   CHD =       7.8175E-23     SSM_CHD-1                        

           TOTAL OUT =  1095000000.0019             TOTAL OUT =     8640000.0000

            IN - OUT =       2.1696E-05              IN - OUT =       6.8918E-08

 PERCENT DISCREPANCY =           0.00     PERCENT DISCREPANCY =           0.00




         TIME SUMMARY AT END OF TIME STEP    5 IN STRESS PERIOD    1
                    SECONDS     MINUTES      HOURS       DAYS        YEARS
                    -----------------------------------------------------------
   TIME STEP LENGTH 2.19000E+06  36500.      608.33      25.347     6.93969E-02
 STRESS PERIOD TIME 1.09500E+07 1.82500E+05  3041.7      126.74     0.34698    
         TOTAL TIME 1.09500E+07 1.82500E+05  3041.7      126.74     0.34698    


end timestep


start timestep kper="1" kstp="6" mode="normal"

 UBDSV1 SAVING  STORAGE-AQUEOUS ON UNIT   1029 AT TIME STEP      6, STRESS PERIOD      1
 UBDSV1 SAVING     FLOW-JA-FACE ON UNIT   1029 AT TIME STEP      6, STRESS PERIOD      1
 UBDSV06 SAVING  SOURCE-SINK MIX IN MODEL GWT_P06-MF6      PACKAGE GWT_P06-MF6     CONNECTED TO MODEL GWT_P06-MF6      PACKAGE SSM              ON UNIT   1029 AT TIME STEP      6, STRESS PERIOD      1
1
  CONCENTRATION IN LAYER   1 AT END OF TIME STEP   6 IN STRESS PERIOD    1
  ---------------------------------------------------------------------------

                1               2               3               4               5               6               7               8               9              10
               11              12              13              14              15              16              17              18              19              20
               21              22              23              24              25              26              27              28              29              30
               31
 ................................................................................................................................................................................................................................................................................................................................................................................................................................................................................................................
   1      0.00000        1.882156E-55    2.641908E-52    1.884155E-49    8.820525E-47    2.991913E-44    7.714864E-42    1.550331E-39    2.457340E-37    3.083502E-35
         3.053321E-33    2.358605E-31    1.382447E-29    5.735999E-28    1.412871E-26    6.867558E-26    1.412749E-26    5.727039E-28    1.369262E-29    2.314172E-31
         2.989980E-33    3.155284E-35    2.778945E-37    2.039248E-39    1.192591E-41    5.318930E-44    1.744494E-46    4.010173E-49    5.875959E-52    4.264603E-55
          0.00000    
   2     1.882156E-55    2.503873E-52    1.782103E-49    8.484751E-47    2.976607E-44    8.075467E-42    1.738374E-39    3.009164E-37    4.212515E-35    4.769781E-33
         4.347028E-31    3.151595E-29    1.771307E-27    7.257092E-26    1.910531E-24    9.759837E-24    1.910356E-24    7.247213E-26    1.756717E-27    3.074589E-29
         4.145453E-31    4.581430E-33    4.288252E-35    3.491093E-37    2.380536E-39    1.293536E-41    5.417918E-44    1.699530E-46    3.815338E-49    5.585732E-52
         4.276637E-55
   3     2.641908E-52    1.782103E-49    8.358659E-47    2.962124E-44    8.284424E-42    1.873455E-39    3.470992E-37    5.301588E-35    6.686189E-33    6.947736E-31
         5.912879E-29    4.072549E-27    2.214416E-25    8.985070E-24    2.482151E-22    1.268053E-21    2.481943E-22    8.976357E-24    2.201584E-25    3.972745E-27
         5.547835E-29    6.318523E-31    6.108132E-33    5.334571E-35    4.118773E-37    2.646044E-39    1.359788E-41    5.473257E-44    1.687356E-46    3.828774E-49
         5.898595E-52
   4     1.884155E-49    8.484751E-47    2.962124E-44    8.350849E-42    1.943332E-39    3.777333E-37    6.167811E-35    8.474997E-33    9.788392E-31    9.467294E-29
         7.614714E-27    5.028699E-25    2.657306E-23    1.061808E-21    2.988281E-20    1.409546E-19    2.988101E-20    1.061291E-21    2.649916E-23    4.935928E-25
         7.139222E-27    8.314770E-29    8.099595E-31    7.293033E-33    6.168780E-35    4.568441E-37    2.799877E-39    1.388540E-41    5.507899E-44    1.716816E-46
         4.050784E-49
   5     8.820525E-47    2.976607E-44    8.284424E-42    1.943332E-39    3.884510E-37    6.648685E-35    9.755966E-33    1.225835E-30    1.314917E-28    1.197931E-26
         9.190392E-25    5.848454E-23    2.996339E-21    1.158805E-19    3.153405E-18    1.138042E-17    3.153345E-18    1.158647E-19    2.992961E-21    5.798297E-23
         8.763114E-25    1.050200E-26    1.022222E-28    9.084972E-31    8.028862E-33    6.653576E-35    4.749923E-37    2.818976E-39    1.378599E-41    5.519472E-44
         1.779245E-46
   6     2.991913E-44    8.075467E-42    1.873455E-39    3.777333E-37    6.648685E-35    1.022219E-32    1.370501E-30    1.597175E-28    1.610314E-26    1.394653E-24
         1.025664E-22    6.276610E-21    3.073285E-19    1.105315E-17   -5.456638E-18    1.174493E-16   -5.457081E-18    1.105277E-17    3.072785E-19    6.259712E-21
         1.004806E-22    1.268602E-24    1.265996E-26    1.086225E-28    9.377249E-31    8.260171E-33    6.667781E-35    4.616521E-37    2.697688E-39    1.328010E-41
         5.481027E-44
   7     7.714864E-42    1.738374E-39    3.470992E-37    6.167811E-35    9.755966E-33    1.370501E-30    1.703438E-28    1.863922E-26    1.783036E-24    1.475440E-22
         1.037901E-20    6.019920E-19    2.709100E-17   -1.821073E-17   -5.073593E-16   -3.172159E-15   -5.073482E-16   -1.820283E-17    2.709061E-17    6.020011E-19
         1.032151E-20    1.420070E-22    1.541766E-24    1.336612E-26    1.078014E-28    9.253824E-31    7.961027E-33    6.196158E-35    4.192785E-37    2.450448E-39
         1.237397E-41
   8     1.550331E-39    3.009164E-37    5.301588E-35    8.474997E-33    1.225835E-30    1.597175E-28    1.863922E-26    1.933844E-24    1.764615E-22    1.392266E-20
         9.230941E-19    4.876225E-17   -4.820597E-17   -2.023575E-15   -2.523357E-14   -1.464134E-13   -2.523283E-14   -2.023345E-15   -4.813524E-17    4.876995E-17
         9.235350E-19    1.379576E-20    1.672626E-22    1.625578E-24    1.314841E-26    1.049155E-28    8.794438E-31    7.177828E-33    5.353669E-35    3.565198E-37
         2.112148E-39
   9     2.457340E-37    4.212515E-35    6.686189E-33    9.788392E-31    1.314917E-28    1.610314E-26    1.783036E-24    1.764615E-22    1.533641E-20    1.137131E-18
         6.826104E-17   -9.082702E-17   -4.679845E-15   -8.678358E-14   -8.160408E-13   -4.330757E-12   -8.160290E-13   -8.678494E-14   -4.679650E-15   -9.040245E-17
         6.829520E-17    1.138188E-18    1.516364E-20    1.667986E-22    1.519324E-24    1.222016E-26    9.782041E-29    7.817963E-31    6.004269E-33    4.302320E-35
         2.842064E-37
  10     3.083502E-35    4.769781E-33    6.947736E-31    9.467294E-29    1.197931E-26    1.394653E-24    1.475440E-22    1.392266E-20    1.137131E-18    7.615997E-17
        -1.236741E-16   -7.465220E-15   -1.742223E-13   -2.464782E-12    3.652267E-12    6.016458E-10    3.651411E-12   -2.464653E-12   -1.742640E-13   -7.468948E-15
        -1.225037E-16    7.621566E-17    1.138272E-18    1.378170E-20    1.411553E-22    1.244680E-24    1.018412E-26    8.045470E-29    6.161382E-31    4.530513E-33
         3.172912E-35
  11     3.053321E-33    4.347028E-31    5.912879E-29    7.614714E-27    9.190392E-25    1.025664E-22    1.037901E-20    9.230941E-19    6.826104E-17   -1.236741E-16
        -8.679013E-15   -2.401149E-13   -4.395297E-12    4.036464E-11    4.488019E-09    1.950024E-07    4.488031E-09    4.035711E-11   -4.393444E-12   -2.403335E-13
        -8.687552E-15   -1.223961E-16    6.830125E-17    9.236699E-19    1.030973E-20    9.996079E-23    8.643026E-25    6.994414E-27    5.428475E-29    4.073545E-31
         2.962631E-33
  12     2.358605E-31    3.151595E-29    4.072549E-27    5.028699E-25    5.848454E-23    6.276610E-21    6.019920E-19    4.876225E-17   -9.082702E-17   -7.465220E-15
        -2.401149E-13   -5.253099E-12    8.786866E-11    1.385455E-08    1.364690E-06    6.940094E-05    1.364690E-06    1.385466E-08    8.782257E-11   -5.247128E-12
        -2.403789E-13   -7.470009E-15   -9.029294E-17    4.877330E-17    6.020512E-19    6.255435E-21    5.782664E-23    4.903747E-25    3.935451E-27    3.043447E-29
         2.294083E-31
  13     1.382447E-29    1.771307E-27    2.214416E-25    2.657306E-23    2.996339E-21    3.073285E-19    2.709100E-17   -4.820597E-17   -4.679845E-15   -1.742223E-13
        -4.395297E-12    8.786866E-11    1.980102E-08    3.174278E-06    3.271867E-04    1.653560E-02    3.271867E-04    3.174277E-06    1.980141E-08    8.781145E-11
        -4.392582E-12   -1.742898E-13   -4.679880E-15   -4.811286E-17    2.709095E-17    3.072780E-19    2.992119E-21    2.647598E-23    2.196998E-25    1.751044E-27
         1.363685E-29
  14     5.735999E-28    7.257092E-26    8.985070E-24    1.061808E-21    1.158805E-19    1.105315E-17   -1.821073E-17   -2.023575E-15   -8.678358E-14   -2.464782E-12
         4.036464E-11    1.385455E-08    3.174278E-06    5.072092E-04    4.617137E-02     1.77618        4.617137E-02    5.072092E-04    3.174277E-06    1.385471E-08
         4.035413E-11   -2.464570E-12   -8.678727E-14   -2.023300E-15   -1.820050E-17    1.105272E-17    1.158620E-19    1.061185E-21    8.974331E-24    7.244782E-26
         5.724756E-28
  15     1.412871E-26    1.910531E-24    2.482151E-22    2.988281E-20    3.153405E-18   -5.456638E-18   -5.073593E-16   -2.523357E-14   -8.160408E-13    3.652267E-12
         4.488019E-09    1.364690E-06    3.271867E-04    4.617137E-02     2.59678         31.9764         2.59678        4.617137E-02    3.271867E-04    1.364690E-06
         4.488036E-09    3.651194E-12   -8.160271E-13   -2.523270E-14   -5.073463E-16   -5.457138E-18    3.153337E-18    2.988081E-20    2.481921E-22    1.910337E-24
         1.412737E-26
  16     6.867558E-26    9.759837E-24    1.268053E-21    1.409546E-19    1.138042E-17    1.174493E-16   -3.172159E-15   -1.464134E-13   -4.330757E-12    6.016458E-10
         1.950024E-07    6.940094E-05    1.653560E-02     1.77618         31.9764         85.9083         31.9764         1.77618        1.653560E-02    6.940094E-05
         1.950024E-07    6.016458E-10   -4.330756E-12   -1.464134E-13   -3.172159E-15    1.174493E-16    1.138042E-17    1.409546E-19    1.268053E-21    9.759836E-24
         6.867557E-26
  17     1.412749E-26    1.910356E-24    2.481943E-22    2.988101E-20    3.153345E-18   -5.457081E-18   -5.073482E-16   -2.523283E-14   -8.160290E-13    3.651411E-12
         4.488031E-09    1.364690E-06    3.271867E-04    4.617137E-02     2.59678         31.9764         2.59678        4.617137E-02    3.271867E-04    1.364690E-06
         4.488019E-09    3.652268E-12   -8.160408E-13   -2.523357E-14   -5.073594E-16   -5.456641E-18    3.153405E-18    2.988281E-20    2.482151E-22    1.910531E-24
         1.412871E-26
  18     5.727039E-28    7.247213E-26    8.976357E-24    1.061291E-21    1.158647E-19    1.105277E-17   -1.820283E-17   -2.023345E-15   -8.678494E-14   -2.464653E-12
         4.035711E-11    1.385466E-08    3.174277E-06    5.072092E-04    4.617137E-02     1.77618        4.617137E-02    5.072092E-04    3.174278E-06    1.385455E-08
         4.036464E-11   -2.464782E-12   -8.678358E-14   -2.023575E-15   -1.821074E-17    1.105315E-17    1.158805E-19    1.061808E-21    8.985070E-24    7.257092E-26
         5.735999E-28
  19     1.369262E-29    1.756717E-27    2.201584E-25    2.649916E-23    2.992961E-21    3.072785E-19    2.709061E-17   -4.813524E-17   -4.679650E-15   -1.742640E-13
        -4.393444E-12    8.782257E-11    1.980141E-08    3.174277E-06    3.271867E-04    1.653560E-02    3.271867E-04    3.174278E-06    1.980102E-08    8.786866E-11
        -4.395297E-12   -1.742223E-13   -4.679845E-15   -4.820598E-17    2.709100E-17    3.073285E-19    2.996339E-21    2.657306E-23    2.214416E-25    1.771307E-27
         1.382447E-29
  20     2.314172E-31    3.074589E-29    3.972745E-27    4.935928E-25    5.798297E-23    6.259712E-21    6.020011E-19    4.876995E-17   -9.040245E-17   -7.468948E-15
        -2.403335E-13   -5.247128E-12    8.781145E-11    1.385471E-08    1.364690E-06    6.940094E-05    1.364690E-06    1.385455E-08    8.786866E-11   -5.253099E-12
        -2.401149E-13   -7.465220E-15   -9.082702E-17    4.876225E-17    6.019920E-19    6.276610E-21    5.848454E-23    5.028699E-25    4.072549E-27    3.151595E-29
         2.358605E-31
  21     2.989980E-33    4.145453E-31    5.547835E-29    7.139222E-27    8.763114E-25    1.004806E-22    1.032151E-20    9.235350E-19    6.829520E-17   -1.225037E-16
        -8.687552E-15   -2.403789E-13   -4.392582E-12    4.035413E-11    4.488036E-09    1.950024E-07    4.488019E-09    4.036464E-11   -4.395297E-12   -2.401149E-13
        -8.679013E-15   -1.236741E-16    6.826104E-17    9.230941E-19    1.037901E-20    1.025664E-22    9.190392E-25    7.614714E-27    5.912879E-29    4.347028E-31
         3.053321E-33
  22     3.155284E-35    4.581430E-33    6.318523E-31    8.314770E-29    1.050200E-26    1.268602E-24    1.420070E-22    1.379576E-20    1.138188E-18    7.621566E-17
        -1.223961E-16   -7.470009E-15   -1.742898E-13   -2.464570E-12    3.651194E-12    6.016458E-10    3.652268E-12   -2.464782E-12   -1.742223E-13   -7.465220E-15
        -1.236741E-16    7.615997E-17    1.137131E-18    1.392266E-20    1.475440E-22    1.394653E-24    1.197931E-26    9.467294E-29    6.947736E-31    4.769781E-33
         3.083502E-35
  23     2.778945E-37    4.288252E-35    6.108132E-33    8.099595E-31    1.022222E-28    1.265996E-26    1.541766E-24    1.672626E-22    1.516364E-20    1.138272E-18
         6.830125E-17   -9.029294E-17   -4.679880E-15   -8.678727E-14   -8.160271E-13   -4.330756E-12   -8.160408E-13   -8.678358E-14   -4.679845E-15   -9.082702E-17
         6.826104E-17    1.137131E-18    1.533641E-20    1.764615E-22    1.783036E-24    1.610314E-26    1.314917E-28    9.788392E-31    6.686189E-33    4.212515E-35
         2.457340E-37
  24     2.039248E-39    3.491093E-37    5.334571E-35    7.293033E-33    9.084972E-31    1.086225E-28    1.336612E-26    1.625578E-24    1.667986E-22    1.378170E-20
         9.236699E-19    4.877330E-17   -4.811286E-17   -2.023300E-15   -2.523270E-14   -1.464134E-13   -2.523357E-14   -2.023575E-15   -4.820598E-17    4.876225E-17
         9.230941E-19    1.392266E-20    1.764615E-22    1.933844E-24    1.863922E-26    1.597175E-28    1.225835E-30    8.474997E-33    5.301588E-35    3.009164E-37
         1.550331E-39
  25     1.192591E-41    2.380536E-39    4.118773E-37    6.168780E-35    8.028862E-33    9.377249E-31    1.078014E-28    1.314841E-26    1.519324E-24    1.411553E-22
         1.030973E-20    6.020512E-19    2.709095E-17   -1.820050E-17   -5.073463E-16   -3.172159E-15   -5.073594E-16   -1.821074E-17    2.709100E-17    6.019920E-19
         1.037901E-20    1.475440E-22    1.783036E-24    1.863922E-26    1.703438E-28    1.370501E-30    9.755966E-33    6.167811E-35    3.470992E-37    1.738374E-39
         7.714864E-42
  26     5.318930E-44    1.293536E-41    2.646044E-39    4.568441E-37    6.653576E-35    8.260171E-33    9.253824E-31    1.049155E-28    1.222016E-26    1.244680E-24
         9.996079E-23    6.255435E-21    3.072780E-19    1.105272E-17   -5.457138E-18    1.174493E-16   -5.456641E-18    1.105315E-17    3.073285E-19    6.276610E-21
         1.025664E-22    1.394653E-24    1.610314E-26    1.597175E-28    1.370501E-30    1.022219E-32    6.648685E-35    3.777333E-37    1.873455E-39    8.075467E-42
         2.991913E-44
  27     1.744494E-46    5.417918E-44    1.359788E-41    2.799877E-39    4.749923E-37    6.667781E-35    7.961027E-33    8.794438E-31    9.782041E-29    1.018412E-26
         8.643026E-25    5.782664E-23    2.992119E-21    1.158620E-19    3.153337E-18    1.138042E-17    3.153405E-18    1.158805E-19    2.996339E-21    5.848454E-23
         9.190392E-25    1.197931E-26    1.314917E-28    1.225835E-30    9.755966E-33    6.648685E-35    3.884510E-37    1.943332E-39    8.284424E-42    2.976607E-44
         8.820525E-47
  28     4.010173E-49    1.699530E-46    5.473257E-44    1.388540E-41    2.818976E-39    4.616521E-37    6.196158E-35    7.177828E-33    7.817963E-31    8.045470E-29
         6.994414E-27    4.903747E-25    2.647598E-23    1.061185E-21    2.988081E-20    1.409546E-19    2.988281E-20    1.061808E-21    2.657306E-23    5.028699E-25
         7.614714E-27    9.467294E-29    9.788392E-31    8.474997E-33    6.167811E-35    3.777333E-37    1.943332E-39    8.350849E-42    2.962124E-44    8.484751E-47
         1.884155E-49
  29     5.875959E-52    3.815338E-49    1.687356E-46    5.507899E-44    1.378599E-41    2.697688E-39    4.192785E-37    5.353669E-35    6.004269E-33    6.161382E-31
         5.428475E-29    3.935451E-27    2.196998E-25    8.974331E-24    2.481921E-22    1.268053E-21    2.482151E-22    8.985070E-24    2.214416E-25    4.072549E-27
         5.912879E-29    6.947736E-31    6.686189E-33    5.301588E-35    3.470992E-37    1.873455E-39    8.284424E-42    2.962124E-44    8.358659E-47    1.782103E-49
         2.641908E-52
  30     4.264603E-55    5.585732E-52    3.828774E-49    1.716816E-46    5.519472E-44    1.328010E-41    2.450448E-39    3.565198E-37    4.302320E-35    4.530513E-33
         4.073545E-31    3.043447E-29    1.751044E-27    7.244782E-26    1.910337E-24    9.759836E-24    1.910531E-24    7.257092E-26    1.771307E-27    3.151595E-29
         4.347028E-31    4.769781E-33    4.212515E-35    3.009164E-37    1.738374E-39    8.075467E-42    2.976607E-44    8.484751E-47    1.782103E-49    2.503873E-52
         1.882156E-55
  31      0.00000        4.276637E-55    5.898595E-52    4.050784E-49    1.779245E-46    5.481027E-44    1.237397E-41    2.112148E-39    2.842064E-37    3.172912E-35
         2.962631E-33    2.294083E-31    1.363685E-29    5.724756E-28    1.412737E-26    6.867557E-26    1.412871E-26    5.735999E-28    1.382447E-29    2.358605E-31
         3.053321E-33    3.083502E-35    2.457340E-37    1.550331E-39    7.714864E-42    2.991913E-44    8.820525E-47    1.884155E-49    2.641908E-52    1.882156E-55
          0.00000    

 CONCENTRATION WILL BE SAVED ON UNIT 1030 AT END OF TIME STEP    6, STRESS PERIOD    1


  MASS BUDGET FOR ENTIRE MODEL AT END OF TIME STEP    6, STRESS PERIOD   1
  ---------------------------------------------------------------------------------------------------

     CUMULATIVE MASS      M       RATES FOR THIS TIME STEP      M/T          PACKAGE NAME    
     ------------------                 ------------------------                     ----------------

           IN:                                      IN:
           ---                                      ---
     STORAGE-AQUEOUS =       2.1813E-03       STORAGE-AQUEOUS =       1.0005E-05     MST                              
                 WEL =  1314000000.0000                   WEL =     8640000.0000     SSM_WEL-1                        
                 CHD =           0.0000                   CHD =           0.0000     SSM_CHD-1                        

            TOTAL IN =  1314000000.0022              TOTAL IN =     8640000.0000

          OUT:                                     OUT:
          ----                                     ----
     STORAGE-AQUEOUS =  1314000000.0022       STORAGE-AQUEOUS =     8640000.0000     MST                              
                 WEL =           0.0000                   WEL =           0.0000     SSM_WEL-1                        
                 CHD =       1.4062E-20                   CHD =       4.7198E-22     SSM_CHD-1                        

           TOTAL OUT =  1314000000.0022             TOTAL OUT =     8640000.0000

            IN - OUT =       2.1935E-05              IN - OUT =       1.8626E-09

 PERCENT DISCREPANCY =           0.00     PERCENT DISCREPANCY =           0.00




         TIME SUMMARY AT END OF TIME STEP    6 IN STRESS PERIOD    1
                    SECONDS     MINUTES      HOURS       DAYS        YEARS
                    -----------------------------------------------------------
   TIME STEP LENGTH 2.19000E+06  36500.      608.33      25.347     6.93969E-02
 STRESS PERIOD TIME 1.31400E+07 2.19000E+05  3650.0      152.08     0.41638    
         TOTAL TIME 1.31400E+07 2.19000E+05  3650.0      152.08     0.41638    


end timestep


start timestep kper="1" kstp="7" mode="normal"

 UBDSV1 SAVING  STORAGE-AQUEOUS ON UNIT   1029 AT TIME STEP      7, STRESS PERIOD      1
 UBDSV1 SAVING     FLOW-JA-FACE ON UNIT   1029 AT TIME STEP      7, STRESS PERIOD      1
 UBDSV06 SAVING  SOURCE-SINK MIX IN MODEL GWT_P06-MF6      PACKAGE GWT_P06-MF6     CONNECTED TO MODEL GWT_P06-MF6      PACKAGE SSM              ON UNIT   1029 AT TIME STEP      7, STRESS PERIOD      1
1
  CONCENTRATION IN LAYER   1 AT END OF TIME STEP   7 IN STRESS PERIOD    1
  ---------------------------------------------------------------------------

                1               2               3               4               5               6               7               8               9              10
               11              12              13              14              15              16              17              18              19              20
               21              22              23              24              25              26              27              28              29              30
               31
 ................................................................................................................................................................................................................................................................................................................................................................................................................................................................................................................
   1      0.00000        8.376964E-55    1.138335E-51    7.854846E-49    3.555362E-46    1.164974E-43    2.898206E-41    5.608827E-39    8.539024E-37    1.025232E-34
         9.668444E-33    7.127020E-31    4.162183E-29    1.602858E-27    3.646510E-26    1.225725E-25    3.646332E-26    1.602352E-27    4.149679E-29    7.063357E-31
         9.498695E-33    1.020982E-34    8.796001E-37    6.250068E-39    3.602583E-41    1.626995E-43    5.525826E-46    1.335424E-48    2.077645E-51    1.612297E-54
          0.00000    
   2     8.376964E-55    1.078859E-51    7.429369E-49    3.419896E-46    1.158859E-43    3.032514E-41    6.283181E-39    1.043430E-36    1.394362E-34    1.495907E-32
         1.278626E-30    8.668041E-29    4.861080E-27    1.754178E-25    3.787995E-24    9.134443E-24    3.787842E-24    1.754074E-25    4.854908E-27    8.606377E-29
         1.252222E-30    1.463329E-32    1.372023E-34    1.079667E-36    7.122118E-39    3.842727E-41    1.642511E-43    5.360724E-46    1.267752E-48    1.971094E-51
         1.611937E-54
   3     1.138335E-51    7.429369E-49    3.369047E-46    1.153156E-43    3.110350E-41    6.767527E-39    1.201861E-36    1.749255E-34    2.082991E-32    2.015178E-30
         1.563981E-28    9.675327E-27    5.280774E-25    1.722164E-23    3.149711E-22   -9.169941E-23    3.149648E-22    1.722477E-23    5.282367E-25    9.645718E-27
         1.537632E-28    1.960059E-30    1.987890E-32    1.701704E-34    1.248632E-36    7.763392E-39    3.990488E-41    1.648863E-43    5.307045E-46    1.270784E-48
         2.082130E-51
   4     7.854846E-49    3.419896E-46    1.153156E-43    3.135085E-41    7.018020E-39    1.306866E-36    2.030830E-34    2.627622E-32    2.810421E-30    2.452486E-28
         1.706830E-26    9.282431E-25    5.048991E-23    1.336184E-21    1.114960E-20   -2.168882E-19    1.115022E-20    1.336629E-21    5.054826E-23    9.303013E-25
         1.695531E-26    2.402454E-28    2.654058E-30    2.453694E-32    1.959606E-34    1.361367E-36    8.110179E-39    4.048407E-41    1.655245E-43    5.397392E-46
         1.345346E-48
   5     3.555362E-46    1.158859E-43    3.110350E-41    7.018020E-39    1.343589E-36    2.186918E-34    3.015945E-32    3.494163E-30    3.351890E-28    2.598640E-26
         1.548871E-24    6.350912E-23    3.747558E-21    4.332307E-20   -2.837105E-18   -5.473846E-17   -2.837013E-18    4.335700E-20    3.753251E-21    6.399100E-23
         1.560871E-24    2.589772E-26    3.204033E-28    3.228806E-30    2.776007E-32    2.099468E-34    1.402308E-36    8.134322E-39    4.020582E-41    1.661950E-43
         5.604517E-46
   6     1.164974E-43    3.032514E-41    6.767527E-39    1.306866E-36    2.186918E-34    3.156973E-32    3.891678E-30    4.026532E-28    3.397654E-26    2.215110E-24
         9.459832E-23   -1.870268E-22    1.127494E-19   -1.024326E-17   -2.818305E-16   -2.181665E-15   -2.818252E-16   -1.024193E-17    1.130710E-19   -1.436838E-22
         9.687297E-23    2.251247E-24    3.348797E-26    3.811763E-28    3.558687E-30    2.885383E-32    2.098883E-34    1.365557E-36    7.832162E-39    3.901014E-41
         1.660041E-43
   7     2.898206E-41    6.283181E-39    1.201861E-36    2.030830E-34    3.015945E-32    3.891678E-30    4.277406E-28    3.866243E-26    2.675804E-24    1.151884E-22
        -1.157517E-21   -1.067217E-18   -2.562056E-17   -9.036411E-16   -8.086487E-15    1.077146E-15   -8.086349E-15   -9.036150E-16   -2.561337E-17   -1.065100E-18
        -9.777666E-22    1.211499E-22    2.747010E-24    3.841837E-26    4.052974E-28    3.549548E-30    2.766088E-32    1.958484E-34    1.256152E-36    7.224620E-39
         3.684379E-41
   8     5.608827E-39    1.043430E-36    1.749255E-34    2.627622E-32    3.494163E-30    4.026532E-28    3.866243E-26    2.831903E-24    1.144928E-22   -5.164741E-21
        -1.378381E-18   -4.673205E-17   -2.045520E-15   -2.348185E-14   -5.523534E-15    2.007887E-13   -5.524064E-15   -2.348174E-14   -2.045626E-15   -4.669487E-17
        -1.370613E-18   -4.749908E-21    1.243291E-22    2.922293E-24    3.841749E-26    3.798482E-28    3.208106E-30    2.439782E-32    1.701159E-34    1.088810E-36
         6.368377E-39
   9     8.539024E-37    1.394362E-34    2.082991E-32    2.810421E-30    3.351890E-28    3.397654E-26    2.675804E-24    1.144928E-22   -8.433340E-21   -2.484437E-18
        -6.601305E-17   -3.406597E-15   -4.919770E-14   -3.188010E-14    1.129749E-12    5.948088E-12    1.129697E-12   -3.188959E-14   -4.920781E-14   -3.407661E-15
        -6.589839E-17   -2.469419E-18   -7.868954E-21    1.247975E-22    2.753354E-24    3.343906E-26    3.186308E-28    2.633677E-30    1.976472E-32    1.372647E-34
         8.883605E-37
  10     1.025232E-34    1.495907E-32    2.015178E-30    2.452486E-28    2.598640E-26    2.215110E-24    1.151884E-22   -5.164741E-21   -2.484437E-18   -7.428790E-17
        -4.346941E-15   -7.361186E-14   -2.919131E-13    2.404262E-12    1.039061E-10    1.001264E-09    1.039060E-10    2.403524E-12   -2.916330E-13   -7.367755E-14
        -4.349534E-15   -7.410871E-17   -2.468454E-18   -4.703785E-21    1.220380E-22    2.258051E-24    2.590078E-26    2.394885E-28    1.951467E-30    1.459888E-32
         1.024157E-34
  11     9.668444E-33    1.278626E-30    1.563981E-28    1.706830E-26    1.548871E-24    9.459832E-23   -1.157517E-21   -1.378381E-18   -6.601305E-17   -4.346941E-15
        -8.364377E-14   -4.112263E-13    4.611317E-12    3.860867E-10    8.304198E-09    4.240130E-07    8.304210E-09    3.860884E-10    4.607954E-12   -4.100558E-13
        -8.377441E-14   -4.349777E-15   -6.588097E-17   -1.369093E-18   -9.371510E-22    9.744803E-23    1.564436E-24    1.692868E-26    1.530476E-28    1.244846E-30
         9.452984E-33
  12     7.127020E-31    8.668041E-29    9.675327E-27    9.282431E-25    6.350912E-23   -1.870268E-22   -1.067217E-18   -4.673205E-17   -3.406597E-15   -7.361186E-14
        -4.112263E-13    5.701372E-12    6.406681E-10    2.739178E-08    2.949393E-06    1.380125E-04    2.949393E-06    2.739185E-08    6.406612E-10    5.695071E-12
        -4.098980E-13   -7.369407E-14   -3.408012E-15   -4.668531E-17   -1.064460E-18   -1.294898E-22    6.416255E-23    9.312186E-25    9.637768E-27    8.586284E-29
         7.041443E-31
  13     4.162183E-29    4.861080E-27    5.280774E-25    5.048991E-23    3.747558E-21    1.127494E-19   -2.562056E-17   -2.045520E-15   -4.919770E-14   -2.919131E-13
         4.611317E-12    6.406681E-10    3.989064E-08    6.833730E-06    6.453428E-04    2.978093E-02    6.453428E-04    6.833729E-06    3.989093E-08    6.406545E-10
         4.607527E-12   -2.915204E-13   -4.921286E-14   -2.045713E-15   -2.561142E-17    1.131857E-19    3.755466E-21    5.057337E-23    5.283475E-25    4.853073E-27
         4.145177E-29
  14     1.602858E-27    1.754178E-25    1.722164E-23    1.336184E-21    4.332307E-20   -1.024326E-17   -9.036411E-16   -2.348185E-14   -3.188010E-14    2.404262E-12
         3.860867E-10    2.739178E-08    6.833730E-06    9.953708E-04    8.159082E-02     2.68392        8.159082E-02    9.953708E-04    6.833729E-06    2.739189E-08
         3.860872E-10    2.403404E-12   -3.189069E-14   -2.348187E-14   -9.036130E-16   -1.024158E-17    4.336762E-20    1.336790E-21    1.722627E-23    1.754119E-25
         1.602285E-27
  15     3.646510E-26    3.787995E-24    3.149711E-22    1.114960E-20   -2.837105E-18   -2.818305E-16   -8.086487E-15   -5.523534E-15    1.129749E-12    1.039061E-10
         8.304198E-09    2.949393E-06    6.453428E-04    8.159082E-02     3.85665         38.3980         3.85665        8.159082E-02    6.453428E-04    2.949393E-06
         8.304214E-09    1.039059E-10    1.129685E-12   -5.524187E-15   -8.086327E-15   -2.818244E-16   -2.837001E-18    1.115029E-20    3.149640E-22    3.787824E-24
         3.646311E-26
  16     1.225725E-25    9.134443E-24   -9.169941E-23   -2.168882E-19   -5.473846E-17   -2.181665E-15    1.077146E-15    2.007887E-13    5.948088E-12    1.001264E-09
         4.240130E-07    1.380125E-04    2.978093E-02     2.68392         38.3980         89.8346         38.3980         2.68392        2.978093E-02    1.380125E-04
         4.240130E-07    1.001264E-09    5.948087E-12    2.007887E-13    1.077147E-15   -2.181665E-15   -5.473846E-17   -2.168882E-19   -9.169958E-23    9.134441E-24
         1.225725E-25
  17     3.646332E-26    3.787842E-24    3.149648E-22    1.115022E-20   -2.837013E-18   -2.818252E-16   -8.086349E-15   -5.524064E-15    1.129697E-12    1.039060E-10
         8.304210E-09    2.949393E-06    6.453428E-04    8.159082E-02     3.85665         38.3980         3.85665        8.159082E-02    6.453428E-04    2.949393E-06
         8.304198E-09    1.039061E-10    1.129749E-12   -5.523528E-15   -8.086487E-15   -2.818305E-16   -2.837105E-18    1.114960E-20    3.149711E-22    3.787995E-24
         3.646510E-26
  18     1.602352E-27    1.754074E-25    1.722477E-23    1.336629E-21    4.335700E-20   -1.024193E-17   -9.036150E-16   -2.348174E-14   -3.188959E-14    2.403524E-12
         3.860884E-10    2.739185E-08    6.833729E-06    9.953708E-04    8.159082E-02     2.68392        8.159082E-02    9.953708E-04    6.833730E-06    2.739178E-08
         3.860867E-10    2.404263E-12   -3.188009E-14   -2.348185E-14   -9.036411E-16   -1.024326E-17    4.332307E-20    1.336184E-21    1.722164E-23    1.754178E-25
         1.602858E-27
  19     4.149679E-29    4.854908E-27    5.282367E-25    5.054826E-23    3.753251E-21    1.130710E-19   -2.561337E-17   -2.045626E-15   -4.920781E-14   -2.916330E-13
         4.607954E-12    6.406612E-10    3.989093E-08    6.833729E-06    6.453428E-04    2.978093E-02    6.453428E-04    6.833730E-06    3.989064E-08    6.406681E-10
         4.611317E-12   -2.919131E-13   -4.919770E-14   -2.045520E-15   -2.562056E-17    1.127494E-19    3.747557E-21    5.048991E-23    5.280774E-25    4.861080E-27
         4.162183E-29
  20     7.063357E-31    8.606377E-29    9.645718E-27    9.303013E-25    6.399100E-23   -1.436838E-22   -1.065100E-18   -4.669487E-17   -3.407661E-15   -7.367755E-14
        -4.100558E-13    5.695071E-12    6.406545E-10    2.739189E-08    2.949393E-06    1.380125E-04    2.949393E-06    2.739178E-08    6.406681E-10    5.701372E-12
        -4.112263E-13   -7.361186E-14   -3.406597E-15   -4.673205E-17   -1.067217E-18   -1.870269E-22    6.350912E-23    9.282431E-25    9.675327E-27    8.668041E-29
         7.127020E-31
  21     9.498695E-33    1.252222E-30    1.537632E-28    1.695531E-26    1.560871E-24    9.687297E-23   -9.777666E-22   -1.370613E-18   -6.589839E-17   -4.349534E-15
        -8.377441E-14   -4.098980E-13    4.607527E-12    3.860872E-10    8.304214E-09    4.240130E-07    8.304198E-09    3.860867E-10    4.611317E-12   -4.112263E-13
        -8.364377E-14   -4.346941E-15   -6.601305E-17   -1.378381E-18   -1.157517E-21    9.459832E-23    1.548871E-24    1.706830E-26    1.563981E-28    1.278626E-30
         9.668444E-33
  22     1.020982E-34    1.463329E-32    1.960059E-30    2.402454E-28    2.589772E-26    2.251247E-24    1.211499E-22   -4.749908E-21   -2.469419E-18   -7.410871E-17
        -4.349777E-15   -7.369407E-14   -2.915204E-13    2.403404E-12    1.039059E-10    1.001264E-09    1.039061E-10    2.404263E-12   -2.919131E-13   -7.361186E-14
        -4.346941E-15   -7.428790E-17   -2.484437E-18   -5.164741E-21    1.151884E-22    2.215110E-24    2.598640E-26    2.452486E-28    2.015178E-30    1.495907E-32
         1.025232E-34
  23     8.796001E-37    1.372023E-34    1.987890E-32    2.654058E-30    3.204033E-28    3.348797E-26    2.747010E-24    1.243291E-22   -7.868954E-21   -2.468454E-18
        -6.588097E-17   -3.408012E-15   -4.921286E-14   -3.189069E-14    1.129685E-12    5.948087E-12    1.129749E-12   -3.188009E-14   -4.919770E-14   -3.406597E-15
        -6.601305E-17   -2.484437E-18   -8.433340E-21    1.144928E-22    2.675804E-24    3.397654E-26    3.351890E-28    2.810421E-30    2.082991E-32    1.394362E-34
         8.539024E-37
  24     6.250068E-39    1.079667E-36    1.701704E-34    2.453694E-32    3.228806E-30    3.811763E-28    3.841837E-26    2.922293E-24    1.247975E-22   -4.703785E-21
        -1.369093E-18   -4.668531E-17   -2.045713E-15   -2.348187E-14   -5.524187E-15    2.007887E-13   -5.523528E-15   -2.348185E-14   -2.045520E-15   -4.673205E-17
        -1.378381E-18   -5.164741E-21    1.144928E-22    2.831903E-24    3.866243E-26    4.026532E-28    3.494163E-30    2.627622E-32    1.749255E-34    1.043430E-36
         5.608827E-39
  25     3.602583E-41    7.122118E-39    1.248632E-36    1.959606E-34    2.776007E-32    3.558687E-30    4.052974E-28    3.841749E-26    2.753354E-24    1.220380E-22
        -9.371510E-22   -1.064460E-18   -2.561142E-17   -9.036130E-16   -8.086327E-15    1.077147E-15   -8.086487E-15   -9.036411E-16   -2.562056E-17   -1.067217E-18
        -1.157517E-21    1.151884E-22    2.675804E-24    3.866243E-26    4.277406E-28    3.891678E-30    3.015945E-32    2.030830E-34    1.201861E-36    6.283181E-39
         2.898206E-41
  26     1.626995E-43    3.842727E-41    7.763392E-39    1.361367E-36    2.099468E-34    2.885383E-32    3.549548E-30    3.798482E-28    3.343906E-26    2.258051E-24
         9.744803E-23   -1.294898E-22    1.131857E-19   -1.024158E-17   -2.818244E-16   -2.181665E-15   -2.818305E-16   -1.024326E-17    1.127494E-19   -1.870269E-22
         9.459832E-23    2.215110E-24    3.397654E-26    4.026532E-28    3.891678E-30    3.156973E-32    2.186918E-34    1.306866E-36    6.767527E-39    3.032514E-41
         1.164974E-43
  27     5.525826E-46    1.642511E-43    3.990488E-41    8.110179E-39    1.402308E-36    2.098883E-34    2.766088E-32    3.208106E-30    3.186308E-28    2.590078E-26
         1.564436E-24    6.416255E-23    3.755466E-21    4.336762E-20   -2.837001E-18   -5.473846E-17   -2.837105E-18    4.332307E-20    3.747557E-21    6.350912E-23
         1.548871E-24    2.598640E-26    3.351890E-28    3.494163E-30    3.015945E-32    2.186918E-34    1.343589E-36    7.018020E-39    3.110350E-41    1.158859E-43
         3.555362E-46
  28     1.335424E-48    5.360724E-46    1.648863E-43    4.048407E-41    8.134322E-39    1.365557E-36    1.958484E-34    2.439782E-32    2.633677E-30    2.394885E-28
         1.692868E-26    9.312186E-25    5.057337E-23    1.336790E-21    1.115029E-20   -2.168882E-19    1.114960E-20    1.336184E-21    5.048991E-23    9.282431E-25
         1.706830E-26    2.452486E-28    2.810421E-30    2.627622E-32    2.030830E-34    1.306866E-36    7.018020E-39    3.135085E-41    1.153156E-43    3.419896E-46
         7.854846E-49
  29     2.077645E-51    1.267752E-48    5.307045E-46    1.655245E-43    4.020582E-41    7.832162E-39    1.256152E-36    1.701159E-34    1.976472E-32    1.951467E-30
         1.530476E-28    9.637768E-27    5.283475E-25    1.722627E-23    3.149640E-22   -9.169958E-23    3.149711E-22    1.722164E-23    5.280774E-25    9.675327E-27
         1.563981E-28    2.015178E-30    2.082991E-32    1.749255E-34    1.201861E-36    6.767527E-39    3.110350E-41    1.153156E-43    3.369047E-46    7.429369E-49
         1.138335E-51
  30     1.612297E-54    1.971094E-51    1.270784E-48    5.397392E-46    1.661950E-43    3.901014E-41    7.224620E-39    1.088810E-36    1.372647E-34    1.459888E-32
         1.244846E-30    8.586284E-29    4.853073E-27    1.754119E-25    3.787824E-24    9.134441E-24    3.787995E-24    1.754178E-25    4.861080E-27    8.668041E-29
         1.278626E-30    1.495907E-32    1.394362E-34    1.043430E-36    6.283181E-39    3.032514E-41    1.158859E-43    3.419896E-46    7.429369E-49    1.078859E-51
         8.376964E-55
  31      0.00000        1.611937E-54    2.082130E-51    1.345346E-48    5.604517E-46    1.660041E-43    3.684379E-41    6.368377E-39    8.883605E-37    1.024157E-34
         9.452984E-33    7.041443E-31    4.145177E-29    1.602285E-27    3.646311E-26    1.225725E-25    3.646510E-26    1.602858E-27    4.162183E-29    7.127020E-31
         9.668444E-33    1.025232E-34    8.539024E-37    5.608827E-39    2.898206E-41    1.164974E-43    3.555362E-46    7.854846E-49    1.138335E-51    8.376964E-55
          0.00000    

 CONCENTRATION WILL BE SAVED ON UNIT 1030 AT END OF TIME STEP    7, STRESS PERIOD    1


  MASS BUDGET FOR ENTIRE MODEL AT END OF TIME STEP    7, STRESS PERIOD   1
  ---------------------------------------------------------------------------------------------------

     CUMULATIVE MASS      M       RATES FOR THIS TIME STEP      M/T          PACKAGE NAME    
     ------------------                 ------------------------                     ----------------

           IN:                                      IN:
           ---                                      ---
     STORAGE-AQUEOUS =       2.2029E-03       STORAGE-AQUEOUS =       8.5432E-07     MST                              
                 WEL =  1533000000.0000                   WEL =     8640000.0000     SSM_WEL-1                        
                 CHD =           0.0000                   CHD =           0.0000     SSM_CHD-1                        

            TOTAL IN =  1533000000.0022              TOTAL IN =     8640000.0000

          OUT:                                     OUT:
          ----                                     ----
     STORAGE-AQUEOUS =  1533000000.0022       STORAGE-AQUEOUS =     8640000.0000     MST                              
                 WEL =           0.0000                   WEL =           0.0000     SSM_WEL-1                        
                 CHD =       3.8285E-20                   CHD =       9.5565E-22     SSM_CHD-1                        

           TOTAL OUT =  1533000000.0022             TOTAL OUT =     8640000.0000

            IN - OUT =       2.9564E-05              IN - OUT =       2.9802E-07

 PERCENT DISCREPANCY =           0.00     PERCENT DISCREPANCY =           0.00




         TIME SUMMARY AT END OF TIME STEP    7 IN STRESS PERIOD    1
                    SECONDS     MINUTES      HOURS       DAYS        YEARS
                    -----------------------------------------------------------
   TIME STEP LENGTH 2.19000E+06  36500.      608.33      25.347     6.93969E-02
 STRESS PERIOD TIME 1.53300E+07 2.55500E+05  4258.3      177.43     0.48578    
         TOTAL TIME 1.53300E+07 2.55500E+05  4258.3      177.43     0.48578    


end timestep


start timestep kper="1" kstp="8" mode="normal"

 UBDSV1 SAVING  STORAGE-AQUEOUS ON UNIT   1029 AT TIME STEP      8, STRESS PERIOD      1
 UBDSV1 SAVING     FLOW-JA-FACE ON UNIT   1029 AT TIME STEP      8, STRESS PERIOD      1
 UBDSV06 SAVING  SOURCE-SINK MIX IN MODEL GWT_P06-MF6      PACKAGE GWT_P06-MF6     CONNECTED TO MODEL GWT_P06-MF6      PACKAGE SSM              ON UNIT   1029 AT TIME STEP      8, STRESS PERIOD      1
1
  CONCENTRATION IN LAYER   1 AT END OF TIME STEP   8 IN STRESS PERIOD    1
  ---------------------------------------------------------------------------

                1               2               3               4               5               6               7               8               9              10
               11              12              13              14              15              16              17              18              19              20
               21              22              23              24              25              26              27              28              29              30
               31
 ................................................................................................................................................................................................................................................................................................................................................................................................................................................................................................................
   1      0.00000        3.348704E-54    4.401126E-51    2.932101E-48    1.278495E-45    4.023886E-43    9.579600E-41    1.765629E-38    2.544469E-36    2.869340E-34
         2.519486E-32    1.738926E-30    1.023997E-28    3.543737E-27    7.045656E-26    2.238816E-26    7.045316E-26    3.542946E-27    1.021934E-28    1.725962E-30
         2.473555E-32    2.816408E-34    2.500090E-36    1.791620E-38    1.037144E-40    4.739801E-43    1.647561E-45    4.117043E-48    6.674201E-51    5.426628E-54
          0.00000    
   2     3.348704E-54    4.171167E-51    2.773207E-48    1.229640E-45    4.001366E-43    1.001480E-40    1.974140E-38    3.097553E-36    3.876004E-34    3.847479E-32
         2.997229E-30    1.854762E-28    1.063822E-26    3.312379E-25    5.798868E-24   -1.672684E-23    5.798621E-24    3.312156E-25    1.062763E-26    1.843811E-28
         2.942335E-30    3.747780E-32    3.714509E-34    3.000196E-36    2.001684E-38    1.091658E-40    4.751967E-43    1.594448E-45    3.908046E-48    6.336593E-51
         5.430172E-54
   3     4.401126E-51    2.773207E-48    1.211319E-45    3.981053E-43    1.026697E-40    2.123810E-38    3.558689E-36    4.838027E-34    5.309913E-32    4.647679E-30
         3.175271E-28    1.707503E-26    9.889957E-25    2.617055E-23    3.424292E-22   -4.273004E-21    3.424182E-22    2.617275E-23    9.889277E-25    1.701830E-26
         3.127406E-28    4.521782E-30    5.010526E-32    4.521739E-34    3.410818E-36    2.154060E-38    1.124807E-40    4.753020E-43    1.576620E-45    3.916670E-48
         6.693939E-51
   4     2.932101E-48    1.229640E-45    3.981053E-43    1.034704E-40    2.201172E-38    3.863776E-36    5.597625E-34    6.652616E-32    6.405269E-30    4.883549E-28
         2.811395E-26    1.173348E-24    7.611113E-23    1.461622E-21    5.339084E-21   -6.719760E-19    5.339181E-21    1.462013E-21    7.616851E-23    1.174098E-24
         2.787290E-26    4.773065E-28    6.010058E-30    6.077107E-32    5.135612E-34    3.680167E-36    2.234517E-38    1.137004E-40    4.764800E-43    1.602631E-45
         4.144285E-48
   5     1.278495E-45    4.001366E-43    1.026697E-40    2.201172E-38    3.970381E-36    6.017491E-34    7.602365E-32    7.888886E-30    6.564847E-28    4.190454E-26
         1.795505E-24    2.575028E-23    4.039154E-21    2.091245E-20   -8.058642E-19   -7.012288E-17   -8.058044E-19    2.094693E-20    4.044935E-21    2.625958E-23
         1.800779E-24    4.134352E-26    6.186040E-28    7.147844E-30    6.789241E-32    5.463244E-34    3.773358E-36    2.236598E-38    1.129084E-40    4.786949E-43
         1.664441E-45
   6     4.023886E-43    1.001480E-40    2.123810E-38    3.863776E-36    6.017491E-34    7.945865E-32    8.739928E-30    7.779696E-28    5.334934E-26    2.522284E-24
         3.857402E-23   -7.516491E-21    4.647892E-20   -3.166640E-18   -2.506051E-16   -2.290783E-15   -2.505988E-16   -3.165472E-18    4.680546E-20   -7.470380E-21
         4.093032E-23    2.530243E-24    5.108329E-26    7.108831E-28    7.755095E-30    7.024224E-32    5.453506E-34    3.677360E-36    2.159682E-38    1.099623E-40
         4.796835E-43
   7     9.579600E-41    1.974140E-38    3.558689E-36    5.597625E-34    7.602365E-32    8.739928E-30    8.220799E-28    5.941984E-26    2.856510E-24    4.440586E-23
        -6.480102E-21   -1.192781E-18   -8.802633E-18   -7.941316E-16   -8.399756E-15   -3.202823E-15   -8.399606E-15   -7.941043E-16   -8.794998E-18   -1.190592E-18
        -6.290215E-21    5.015125E-23    2.863763E-24    5.600258E-26    7.422172E-28    7.724749E-30    6.749580E-32    5.109683E-34    3.405373E-36    2.009374E-38
         1.047780E-40
   8     1.765629E-38    3.097553E-36    4.838027E-34    6.652616E-32    7.888886E-30    7.779696E-28    5.941984E-26    2.905938E-24    1.244895E-23   -9.269946E-21
        -2.913485E-19   -1.705156E-17   -1.812542E-15   -2.450762E-14   -3.404387E-14    1.380554E-13   -3.404426E-14   -2.450748E-14   -1.812642E-15   -1.700892E-17
        -2.837993E-19   -8.838447E-21    2.150630E-23    2.908616E-24    5.584503E-26    7.057572E-28    7.079401E-30    6.018702E-32    4.489789E-34    2.993880E-36
         1.800079E-38
   9     2.544469E-36    3.876004E-34    5.309913E-32    6.405269E-30    6.564847E-28    5.334934E-26    2.856510E-24    1.244895E-23   -1.360481E-20   -5.538149E-19
        -2.739251E-17   -3.062032E-15   -5.329647E-14   -9.907205E-14    2.157344E-13    1.250535E-11    2.156654E-13   -9.907358E-14   -5.330548E-14   -3.063075E-15
        -2.725791E-17   -5.392945E-19   -1.302318E-20    2.189434E-23    2.862090E-24    5.075917E-26    6.129786E-28    5.948653E-30    4.963248E-32    3.690556E-34
         2.496958E-36
  10     2.869340E-34    3.847479E-32    4.647679E-30    4.883549E-28    4.190454E-26    2.522284E-24    4.440586E-23   -9.269946E-21   -5.538149E-19   -3.155146E-17
        -3.947383E-15   -8.060941E-14   -4.023945E-13    3.844244E-13    1.564657E-10    2.084565E-09    1.564657E-10    3.834768E-13   -4.020526E-13   -8.067435E-14
        -3.949811E-15   -3.134078E-17   -5.383526E-19   -8.791425E-21    5.093983E-23    2.529690E-24    4.121996E-26    4.750139E-28    4.496193E-30    3.728889E-32
         2.809151E-34
  11     2.519486E-32    2.997229E-30    3.175271E-28    2.811395E-26    1.795505E-24    3.857402E-23   -6.480102E-21   -2.913485E-19   -2.739251E-17   -3.947383E-15
        -9.170207E-14   -5.512171E-13    1.745624E-12    5.672697E-10    1.860671E-08    8.504232E-07    1.860672E-08    5.672739E-10    1.741040E-12   -5.498125E-13
        -9.183656E-14   -3.950014E-15   -2.723691E-17   -2.822865E-19   -6.247234E-21    4.150018E-23    1.801670E-24    2.779822E-26    3.112819E-28    2.925459E-30
         2.459407E-32
  12     1.738926E-30    1.854762E-28    1.707503E-26    1.173348E-24    2.575028E-23   -7.516491E-21   -1.192781E-18   -1.705156E-17   -3.062032E-15   -8.060941E-14
        -5.512171E-13    2.548021E-12    9.705086E-10    6.089398E-08    5.877992E-06    2.559659E-04    5.877992E-06    6.089403E-08    9.705127E-10    2.538954E-12
        -5.496238E-13   -8.069166E-14   -3.063403E-15   -1.699714E-17   -1.189914E-18   -7.454860E-21    2.644298E-23    1.174514E-24    1.699969E-26    1.839946E-28
         1.721207E-30
  13     1.023997E-28    1.063822E-26    9.889957E-25    7.611113E-23    4.039154E-21    4.647892E-20   -8.802633E-18   -1.812542E-15   -5.329647E-14   -4.023945E-13
         1.745624E-12    9.705086E-10    8.828352E-08    1.357558E-05    1.187626E-03    5.029505E-02    1.187626E-03    1.357558E-05    8.828376E-08    9.705075E-10
         1.740320E-12   -4.019202E-13   -5.331029E-14   -1.812728E-15   -8.792644E-18    4.692789E-20    4.047387E-21    7.619616E-23    9.889859E-25    1.062441E-26
         1.021192E-28
  14     3.543737E-27    3.312379E-25    2.617055E-23    1.461622E-21    2.091245E-20   -3.166640E-18   -7.941316E-16   -2.450762E-14   -9.907205E-14    3.844244E-13
         5.672697E-10    6.089398E-08    1.357558E-05    1.822473E-03    0.135262         3.82473        0.135262        1.822473E-03    1.357558E-05    6.089407E-08
         5.672734E-10    3.833023E-13   -9.907252E-14   -2.450763E-14   -7.941026E-16   -3.165139E-18    2.095877E-20    1.462191E-21    2.617448E-23    3.312236E-25
         3.542879E-27
  15     7.045656E-26    5.798868E-24    3.424292E-22    5.339084E-21   -8.058642E-19   -2.506051E-16   -8.399756E-15   -3.404387E-14    2.157344E-13    1.564657E-10
         1.860671E-08    5.877992E-06    1.187626E-03    0.135262         5.41396         44.5179         5.41396        0.135262        1.187626E-03    5.877992E-06
         1.860672E-08    1.564657E-10    2.156498E-13   -3.404436E-14   -8.399582E-15   -2.505978E-16   -8.057961E-19    5.339207E-21    3.424171E-22    5.798593E-24
         7.045278E-26
  16     2.238816E-26   -1.672684E-23   -4.273004E-21   -6.719760E-19   -7.012288E-17   -2.290783E-15   -3.202823E-15    1.380554E-13    1.250535E-11    2.084565E-09
         8.504232E-07    2.559659E-04    5.029505E-02     3.82473         44.5179         92.6670         44.5179         3.82473        5.029505E-02    2.559659E-04
         8.504232E-07    2.084565E-09    1.250535E-11    1.380555E-13   -3.202821E-15   -2.290783E-15   -7.012288E-17   -6.719760E-19   -4.273004E-21   -1.672685E-23
         2.238811E-26
  17     7.045316E-26    5.798621E-24    3.424182E-22    5.339181E-21   -8.058044E-19   -2.505988E-16   -8.399606E-15   -3.404426E-14    2.156654E-13    1.564657E-10
         1.860672E-08    5.877992E-06    1.187626E-03    0.135262         5.41396         44.5179         5.41396        0.135262        1.187626E-03    5.877992E-06
         1.860671E-08    1.564657E-10    2.157345E-13   -3.404387E-14   -8.399756E-15   -2.506051E-16   -8.058642E-19    5.339083E-21    3.424291E-22    5.798868E-24
         7.045656E-26
  18     3.542946E-27    3.312156E-25    2.617275E-23    1.462013E-21    2.094693E-20   -3.165472E-18   -7.941043E-16   -2.450748E-14   -9.907358E-14    3.834768E-13
         5.672739E-10    6.089403E-08    1.357558E-05    1.822473E-03    0.135262         3.82473        0.135262        1.822473E-03    1.357558E-05    6.089398E-08
         5.672697E-10    3.844245E-13   -9.907203E-14   -2.450762E-14   -7.941316E-16   -3.166640E-18    2.091244E-20    1.461622E-21    2.617055E-23    3.312379E-25
         3.543737E-27
  19     1.021934E-28    1.062763E-26    9.889277E-25    7.616851E-23    4.044935E-21    4.680546E-20   -8.794998E-18   -1.812642E-15   -5.330548E-14   -4.020526E-13
         1.741040E-12    9.705127E-10    8.828376E-08    1.357558E-05    1.187626E-03    5.029505E-02    1.187626E-03    1.357558E-05    8.828352E-08    9.705086E-10
         1.745623E-12   -4.023945E-13   -5.329647E-14   -1.812542E-15   -8.802634E-18    4.647892E-20    4.039154E-21    7.611113E-23    9.889957E-25    1.063822E-26
         1.023997E-28
  20     1.725962E-30    1.843811E-28    1.701830E-26    1.174098E-24    2.625958E-23   -7.470380E-21   -1.190592E-18   -1.700892E-17   -3.063075E-15   -8.067435E-14
        -5.498125E-13    2.538954E-12    9.705075E-10    6.089407E-08    5.877992E-06    2.559659E-04    5.877992E-06    6.089398E-08    9.705086E-10    2.548021E-12
        -5.512171E-13   -8.060941E-14   -3.062032E-15   -1.705156E-17   -1.192781E-18   -7.516491E-21    2.575027E-23    1.173348E-24    1.707503E-26    1.854762E-28
         1.738926E-30
  21     2.473555E-32    2.942335E-30    3.127406E-28    2.787290E-26    1.800779E-24    4.093032E-23   -6.290215E-21   -2.837993E-19   -2.725791E-17   -3.949811E-15
        -9.183656E-14   -5.496238E-13    1.740320E-12    5.672734E-10    1.860672E-08    8.504232E-07    1.860671E-08    5.672697E-10    1.745623E-12   -5.512171E-13
        -9.170207E-14   -3.947383E-15   -2.739251E-17   -2.913485E-19   -6.480102E-21    3.857402E-23    1.795505E-24    2.811395E-26    3.175271E-28    2.997229E-30
         2.519486E-32
  22     2.816408E-34    3.747780E-32    4.521782E-30    4.773065E-28    4.134352E-26    2.530243E-24    5.015126E-23   -8.838447E-21   -5.392945E-19   -3.134078E-17
        -3.950014E-15   -8.069166E-14   -4.019202E-13    3.833023E-13    1.564657E-10    2.084565E-09    1.564657E-10    3.844245E-13   -4.023945E-13   -8.060941E-14
        -3.947383E-15   -3.155146E-17   -5.538149E-19   -9.269946E-21    4.440586E-23    2.522284E-24    4.190454E-26    4.883549E-28    4.647679E-30    3.847479E-32
         2.869340E-34
  23     2.500090E-36    3.714509E-34    5.010526E-32    6.010058E-30    6.186040E-28    5.108329E-26    2.863763E-24    2.150630E-23   -1.302318E-20   -5.383526E-19
        -2.723691E-17   -3.063403E-15   -5.331029E-14   -9.907252E-14    2.156498E-13    1.250535E-11    2.157345E-13   -9.907203E-14   -5.329647E-14   -3.062032E-15
        -2.739251E-17   -5.538149E-19   -1.360480E-20    1.244895E-23    2.856510E-24    5.334934E-26    6.564847E-28    6.405269E-30    5.309913E-32    3.876004E-34
         2.544469E-36
  24     1.791620E-38    3.000196E-36    4.521739E-34    6.077107E-32    7.147844E-30    7.108831E-28    5.600258E-26    2.908616E-24    2.189434E-23   -8.791425E-21
        -2.822865E-19   -1.699714E-17   -1.812728E-15   -2.450763E-14   -3.404436E-14    1.380555E-13   -3.404387E-14   -2.450762E-14   -1.812542E-15   -1.705156E-17
        -2.913485E-19   -9.269946E-21    1.244895E-23    2.905938E-24    5.941984E-26    7.779696E-28    7.888886E-30    6.652616E-32    4.838026E-34    3.097553E-36
         1.765629E-38
  25     1.037144E-40    2.001684E-38    3.410818E-36    5.135612E-34    6.789241E-32    7.755095E-30    7.422172E-28    5.584503E-26    2.862090E-24    5.093983E-23
        -6.247234E-21   -1.189914E-18   -8.792644E-18   -7.941026E-16   -8.399582E-15   -3.202821E-15   -8.399756E-15   -7.941316E-16   -8.802634E-18   -1.192781E-18
        -6.480102E-21    4.440586E-23    2.856510E-24    5.941984E-26    8.220799E-28    8.739928E-30    7.602365E-32    5.597625E-34    3.558689E-36    1.974140E-38
         9.579600E-41
  26     4.739801E-43    1.091658E-40    2.154060E-38    3.680167E-36    5.463244E-34    7.024224E-32    7.724749E-30    7.057572E-28    5.075917E-26    2.529690E-24
         4.150018E-23   -7.454860E-21    4.692789E-20   -3.165139E-18   -2.505978E-16   -2.290783E-15   -2.506051E-16   -3.166640E-18    4.647892E-20   -7.516491E-21
         3.857402E-23    2.522284E-24    5.334934E-26    7.779696E-28    8.739928E-30    7.945865E-32    6.017491E-34    3.863776E-36    2.123810E-38    1.001480E-40
         4.023886E-43
  27     1.647561E-45    4.751967E-43    1.124807E-40    2.234517E-38    3.773358E-36    5.453506E-34    6.749580E-32    7.079401E-30    6.129786E-28    4.121996E-26
         1.801670E-24    2.644298E-23    4.047387E-21    2.095877E-20   -8.057961E-19   -7.012288E-17   -8.058642E-19    2.091244E-20    4.039154E-21    2.575027E-23
         1.795505E-24    4.190454E-26    6.564847E-28    7.888886E-30    7.602365E-32    6.017491E-34    3.970381E-36    2.201172E-38    1.026697E-40    4.001366E-43
         1.278495E-45
  28     4.117043E-48    1.594448E-45    4.753020E-43    1.137004E-40    2.236598E-38    3.677360E-36    5.109683E-34    6.018702E-32    5.948653E-30    4.750139E-28
         2.779822E-26    1.174514E-24    7.619616E-23    1.462191E-21    5.339207E-21   -6.719760E-19    5.339083E-21    1.461622E-21    7.611113E-23    1.173348E-24
         2.811395E-26    4.883549E-28    6.405269E-30    6.652616E-32    5.597625E-34    3.863776E-36    2.201172E-38    1.034704E-40    3.981053E-43    1.229640E-45
         2.932101E-48
  29     6.674201E-51    3.908046E-48    1.576620E-45    4.764800E-43    1.129084E-40    2.159682E-38    3.405373E-36    4.489789E-34    4.963248E-32    4.496193E-30
         3.112819E-28    1.699969E-26    9.889859E-25    2.617448E-23    3.424171E-22   -4.273004E-21    3.424291E-22    2.617055E-23    9.889957E-25    1.707503E-26
         3.175271E-28    4.647679E-30    5.309913E-32    4.838026E-34    3.558689E-36    2.123810E-38    1.026697E-40    3.981053E-43    1.211319E-45    2.773207E-48
         4.401126E-51
  30     5.426628E-54    6.336593E-51    3.916670E-48    1.602631E-45    4.786949E-43    1.099623E-40    2.009374E-38    2.993880E-36    3.690556E-34    3.728889E-32
         2.925459E-30    1.839946E-28    1.062441E-26    3.312236E-25    5.798593E-24   -1.672685E-23    5.798868E-24    3.312379E-25    1.063822E-26    1.854762E-28
         2.997229E-30    3.847479E-32    3.876004E-34    3.097553E-36    1.974140E-38    1.001480E-40    4.001366E-43    1.229640E-45    2.773207E-48    4.171167E-51
         3.348704E-54
  31      0.00000        5.430172E-54    6.693939E-51    4.144285E-48    1.664441E-45    4.796835E-43    1.047780E-40    1.800079E-38    2.496958E-36    2.809151E-34
         2.459407E-32    1.721207E-30    1.021192E-28    3.542879E-27    7.045278E-26    2.238811E-26    7.045656E-26    3.543737E-27    1.023997E-28    1.738926E-30
         2.519486E-32    2.869340E-34    2.544469E-36    1.765629E-38    9.579600E-41    4.023886E-43    1.278495E-45    2.932101E-48    4.401126E-51    3.348704E-54
          0.00000    

 CONCENTRATION WILL BE SAVED ON UNIT 1030 AT END OF TIME STEP    8, STRESS PERIOD    1


  MASS BUDGET FOR ENTIRE MODEL AT END OF TIME STEP    8, STRESS PERIOD   1
  ---------------------------------------------------------------------------------------------------

     CUMULATIVE MASS      M       RATES FOR THIS TIME STEP      M/T          PACKAGE NAME    
     ------------------                 ------------------------                     ----------------

           IN:                                      IN:
           ---                                      ---
     STORAGE-AQUEOUS =       2.5556E-03       STORAGE-AQUEOUS =       1.3912E-05     MST                              
                 WEL =  1752000000.0000                   WEL =     8640000.0000     SSM_WEL-1                        
                 CHD =           0.0000                   CHD =           0.0000     SSM_CHD-1                        

            TOTAL IN =  1752000000.0026              TOTAL IN =     8640000.0000

          OUT:                                     OUT:
          ----                                     ----
     STORAGE-AQUEOUS =  1752000000.0025       STORAGE-AQUEOUS =     8640000.0000     MST                              
                 WEL =           0.0000                   WEL =           0.0000     SSM_WEL-1                        
                 CHD =       5.8980E-20                   CHD =       8.1648E-22     SSM_CHD-1                        

           TOTAL OUT =  1752000000.0025             TOTAL OUT =     8640000.0000

            IN - OUT =       3.1471E-05              IN - OUT =       7.6368E-08

 PERCENT DISCREPANCY =           0.00     PERCENT DISCREPANCY =           0.00




         TIME SUMMARY AT END OF TIME STEP    8 IN STRESS PERIOD    1
                    SECONDS     MINUTES      HOURS       DAYS        YEARS
                    -----------------------------------------------------------
   TIME STEP LENGTH 2.19000E+06  36500.      608.33      25.347     6.93969E-02
 STRESS PERIOD TIME 1.75200E+07 2.92000E+05  4866.7      202.78     0.55518    
         TOTAL TIME 1.75200E+07 2.92000E+05  4866.7      202.78     0.55518    


end timestep


start timestep kper="1" kstp="9" mode="normal"

 UBDSV1 SAVING  STORAGE-AQUEOUS ON UNIT   1029 AT TIME STEP      9, STRESS PERIOD      1
 UBDSV1 SAVING     FLOW-JA-FACE ON UNIT   1029 AT TIME STEP      9, STRESS PERIOD      1
 UBDSV06 SAVING  SOURCE-SINK MIX IN MODEL GWT_P06-MF6      PACKAGE GWT_P06-MF6     CONNECTED TO MODEL GWT_P06-MF6      PACKAGE SSM              ON UNIT   1029 AT TIME STEP      9, STRESS PERIOD      1
1
  CONCENTRATION IN LAYER   1 AT END OF TIME STEP   9 IN STRESS PERIOD    1
  ---------------------------------------------------------------------------

                1               2               3               4               5               6               7               8               9              10
               11              12              13              14              15              16              17              18              19              20
               21              22              23              24              25              26              27              28              29              30
               31
 ................................................................................................................................................................................................................................................................................................................................................................................................................................................................................................................
   1      0.00000        1.210384E-53    1.534591E-50    9.836523E-48    4.113261E-45    1.236632E-42    2.798837E-40    4.876108E-38    6.595379E-36    6.915610E-34
         5.584146E-32    3.583143E-30    2.174787E-28    6.773149E-27    1.184297E-25   -5.056845E-25    1.184240E-25    6.772028E-27    2.171450E-28    3.559532E-30
         5.485857E-32    6.745018E-34    6.340588E-36    4.715245E-38    2.798722E-40    1.306808E-42    4.650352E-45    1.194689E-47    1.999754E-50    1.685086E-53
          0.00000    
   2     1.210384E-53    1.454404E-50    9.303084E-48    3.955402E-45    1.229116E-42    2.922735E-40    5.439894E-38    7.998476E-36    9.289368E-34    8.443574E-32
         5.907751E-30    3.304303E-28    2.016462E-26    5.520694E-25    8.260630E-24   -8.830377E-23    8.260259E-24    5.520344E-25    2.014649E-26    3.285970E-28
         5.806452E-30    8.199253E-32    8.796416E-34    7.509437E-36    5.203338E-38    2.918366E-40    1.302605E-42    4.487668E-45    1.132841E-47    1.898074E-50
         1.686113E-53
   3     1.534591E-50    9.303084E-48    3.896272E-45    1.222610E-42    2.994489E-40    5.844133E-38    9.164013E-36    1.154227E-33    1.158415E-31    9.087302E-30
         5.361357E-28    2.443902E-26    1.633520E-24    3.719251E-23    4.279314E-22   -1.187937E-20    4.279144E-22    3.719386E-23    1.633044E-24    2.433977E-26
         5.279657E-28    8.810329E-30    1.085315E-31    1.058955E-33    8.448195E-36    5.552060E-38    2.989390E-40    1.298564E-42    4.430646E-45    1.134646E-47
         2.004686E-50
   4     9.836523E-48    3.955402E-45    1.222610E-42    3.017244E-40    6.052885E-38    9.933147E-36    1.331001E-33    1.443541E-31    1.245756E-29    8.252446E-28
         3.799728E-26    1.047581E-24    1.066694E-22    1.805911E-21    1.563553E-20   -1.227683E-18    1.563520E-20    1.806239E-21    1.067157E-22    1.046542E-24
         3.755072E-26    8.004700E-28    1.158912E-29    1.301919E-31    1.191993E-33    9.053125E-36    5.731532E-38    3.013307E-40    1.300168E-42    4.501900E-45
         1.200344E-47
   5     4.113261E-45    1.229116E-42    2.994489E-40    6.052885E-38    1.020156E-35    1.428329E-33    1.643206E-31    1.524672E-29    1.106708E-27    5.863249E-26
         1.626352E-24   -4.729747E-23    4.826835E-21    5.426585E-20    1.747501E-18   -8.615350E-17    1.747542E-18    5.429818E-20    4.832182E-21   -4.675404E-23
         1.622355E-24    5.705100E-26    1.025888E-27    1.359451E-29    1.441657E-31    1.261554E-33    9.253891E-36    5.729272E-38    2.992554E-40    1.307268E-42
         4.679141E-45
   6     1.236632E-42    2.922735E-40    5.844133E-38    9.933147E-36    1.428329E-33    1.715023E-31    1.681950E-29    1.301717E-27    7.511933E-26    2.786287E-24
        -1.124823E-23   -1.378895E-20    1.173910E-19    4.729085E-18   -2.021654E-16   -2.404301E-15   -2.021583E-16    4.730054E-18    1.177018E-19   -1.373885E-20
        -8.786438E-24    2.757285E-24    7.003269E-26    1.156459E-27    1.459694E-29    1.486098E-31    1.258189E-33    9.026172E-36    5.544929E-38    2.923712E-40
         1.314113E-42
   7     2.798837E-40    5.439894E-38    9.164013E-36    1.331001E-33    1.643206E-31    1.681950E-29    1.370267E-27    8.285815E-26    3.266803E-24    6.214989E-23
        -2.767586E-21   -1.059517E-18    9.295314E-18   -7.360037E-16   -8.921911E-15   -9.130572E-15   -8.921742E-15   -7.359773E-16    9.302613E-18   -1.057224E-18
        -2.560446E-21    6.782349E-23    3.189565E-24    7.485486E-26    1.193936E-27    1.452515E-29    1.431099E-31    1.183081E-33    8.400030E-36    5.191272E-38
         2.804894E-40
   8     4.876108E-38    7.998476E-36    1.154227E-33    1.443541E-31    1.524672E-29    1.301717E-27    8.285815E-26    3.278959E-24    4.992163E-23    5.134305E-21
         1.148814E-18    1.438183E-17   -1.730350E-15   -2.570682E-14   -5.648648E-14   -3.076166E-14   -5.648638E-14   -2.570668E-14   -1.730507E-15    1.442297E-17
         1.156336E-18    5.601470E-21    5.845964E-23    3.166222E-24    7.447225E-26    1.144786E-27    1.343125E-29    1.286342E-31    1.047937E-33    7.453874E-36
         4.700904E-38
   9     6.595379E-36    9.289368E-34    1.158415E-31    1.245756E-29    1.106708E-27    7.511933E-26    3.266803E-24    4.992163E-23    3.639535E-21    1.799579E-18
         1.318325E-17   -2.996087E-15   -5.753326E-14   -1.215133E-13   -8.226133E-13    2.386996E-11   -8.227073E-13   -1.215052E-13   -5.754137E-14   -2.997469E-15
         1.332077E-17    1.814053E-18    4.265858E-21    5.877764E-23    3.177415E-24    6.927418E-26    1.012843E-27    1.144196E-29    1.072570E-31    8.710194E-34
         6.298154E-36
  10     6.915610E-34    8.443574E-32    9.087302E-30    8.252446E-28    5.863249E-26    2.786287E-24    6.214989E-23    5.134305E-21    1.799579E-18    1.316082E-17
        -3.923587E-15   -8.770669E-14   -4.323787E-13   -1.756517E-12    2.428982E-10    4.144407E-09    2.428985E-10   -1.757720E-12   -4.319619E-13   -8.777093E-14
        -3.926569E-15    1.337979E-17    1.815007E-18    5.652105E-21    6.853558E-23    2.747225E-24    5.665704E-26    7.944550E-28    8.744051E-30    8.142282E-32
         6.707879E-34
  11     5.584146E-32    5.907751E-30    5.361357E-28    3.799728E-26    1.626352E-24   -1.124823E-23   -2.767586E-21    1.148814E-18    1.318325E-17   -3.923587E-15
        -9.983380E-14   -5.896198E-13   -8.328229E-13    8.805787E-10    3.816607E-08    1.601931E-06    3.816608E-08    8.805861E-10   -8.388830E-13   -5.879324E-13
        -9.997236E-14   -3.926771E-15    1.334318E-17    1.157893E-18   -2.512867E-21   -8.203960E-24    1.619752E-24    3.739984E-26    5.253017E-28    5.773563E-30
         5.453922E-32
  12     3.583143E-30    3.304303E-28    2.443902E-26    1.047581E-24   -4.729747E-23   -1.378895E-20   -1.059517E-18    1.438183E-17   -2.996087E-15   -8.770669E-14
        -5.896198E-13   -2.743316E-14    1.554754E-09    1.242828E-07    1.102007E-05    4.488357E-04    1.102007E-05    1.242828E-07    1.554772E-09   -3.988496E-14
        -5.877055E-13   -8.778911E-14   -2.997840E-15    1.443525E-17   -1.056489E-18   -1.372136E-20   -4.655183E-23    1.046322E-24    2.430475E-26    3.279219E-28
         3.550596E-30
  13     2.174787E-28    2.016462E-26    1.633520E-24    1.066694E-22    4.826835E-21    1.173910E-19    9.295314E-18   -1.730350E-15   -5.753326E-14   -4.323787E-13
        -8.328229E-13    1.554754E-09    1.797186E-07    2.537361E-05    2.067022E-03    8.062760E-02    2.067022E-03    2.537361E-05    1.797188E-07    1.554769E-09
        -8.399716E-13   -4.318047E-13   -5.754596E-14   -1.730618E-15    9.305053E-18    1.178266E-19    4.834761E-21    1.067440E-22    1.633010E-24    2.014101E-26
         2.170267E-28
  14     6.773149E-27    5.520694E-25    3.719251E-23    1.805911E-21    5.426585E-20    4.729085E-18   -7.360037E-16   -2.570682E-14   -1.215133E-13   -1.756517E-12
         8.805787E-10    1.242828E-07    2.537361E-05    3.155703E-03    0.212947         5.20129        0.212947        3.155703E-03    2.537361E-05    1.242829E-07
         8.805865E-10   -1.757964E-12   -1.215014E-13   -2.570685E-14   -7.359766E-16    4.730366E-18    5.431092E-20    1.806444E-21    3.719614E-23    5.520502E-25
         6.772016E-27
  15     1.184297E-25    8.260630E-24    4.279314E-22    1.563553E-20    1.747501E-18   -2.021654E-16   -8.921911E-15   -5.648648E-14   -8.226133E-13    2.428982E-10
         3.816607E-08    1.102007E-05    2.067022E-03    0.212947         7.26534         50.2463         7.26534        0.212947        2.067022E-03    1.102007E-05
         3.816608E-08    2.428987E-10   -8.227283E-13   -5.648640E-14   -8.921715E-15   -2.021573E-16    1.747549E-18    1.563519E-20    4.279128E-22    8.260220E-24
         1.184234E-25
  16    -5.056845E-25   -8.830377E-23   -1.187937E-20   -1.227683E-18   -8.615350E-17   -2.404301E-15   -9.130572E-15   -3.076166E-14    2.386996E-11    4.144407E-09
         1.601931E-06    4.488357E-04    8.062760E-02     5.20129         50.2463         94.7101         50.2463         5.20129        8.062760E-02    4.488357E-04
         1.601931E-06    4.144407E-09    2.386996E-11   -3.076161E-14   -9.130570E-15   -2.404301E-15   -8.615350E-17   -1.227683E-18   -1.187937E-20   -8.830378E-23
        -5.056846E-25
  17     1.184240E-25    8.260259E-24    4.279144E-22    1.563520E-20    1.747542E-18   -2.021583E-16   -8.921742E-15   -5.648638E-14   -8.227073E-13    2.428985E-10
         3.816608E-08    1.102007E-05    2.067022E-03    0.212947         7.26534         50.2463         7.26534        0.212947        2.067022E-03    1.102007E-05
         3.816607E-08    2.428982E-10   -8.226132E-13   -5.648648E-14   -8.921911E-15   -2.021654E-16    1.747501E-18    1.563552E-20    4.279314E-22    8.260629E-24
         1.184297E-25
  18     6.772028E-27    5.520344E-25    3.719386E-23    1.806239E-21    5.429818E-20    4.730054E-18   -7.359773E-16   -2.570668E-14   -1.215052E-13   -1.757720E-12
         8.805861E-10    1.242828E-07    2.537361E-05    3.155703E-03    0.212947         5.20129        0.212947        3.155703E-03    2.537361E-05    1.242828E-07
         8.805788E-10   -1.756517E-12   -1.215133E-13   -2.570682E-14   -7.360037E-16    4.729085E-18    5.426585E-20    1.805911E-21    3.719251E-23    5.520694E-25
         6.773149E-27
  19     2.171450E-28    2.014649E-26    1.633044E-24    1.067157E-22    4.832182E-21    1.177018E-19    9.302613E-18   -1.730507E-15   -5.754137E-14   -4.319619E-13
        -8.388830E-13    1.554772E-09    1.797188E-07    2.537361E-05    2.067022E-03    8.062760E-02    2.067022E-03    2.537361E-05    1.797186E-07    1.554754E-09
        -8.328229E-13   -4.323787E-13   -5.753326E-14   -1.730350E-15    9.295314E-18    1.173910E-19    4.826835E-21    1.066694E-22    1.633520E-24    2.016462E-26
         2.174787E-28
  20     3.559532E-30    3.285970E-28    2.433977E-26    1.046542E-24   -4.675404E-23   -1.373885E-20   -1.057224E-18    1.442297E-17   -2.997469E-15   -8.777093E-14
        -5.879324E-13   -3.988496E-14    1.554769E-09    1.242829E-07    1.102007E-05    4.488357E-04    1.102007E-05    1.242828E-07    1.554754E-09   -2.743339E-14
        -5.896198E-13   -8.770669E-14   -2.996087E-15    1.438183E-17   -1.059517E-18   -1.378895E-20   -4.729747E-23    1.047581E-24    2.443902E-26    3.304303E-28
         3.583143E-30
  21     5.485857E-32    5.806452E-30    5.279657E-28    3.755072E-26    1.622355E-24   -8.786438E-24   -2.560446E-21    1.156336E-18    1.332077E-17   -3.926569E-15
        -9.997236E-14   -5.877055E-13   -8.399716E-13    8.805865E-10    3.816608E-08    1.601931E-06    3.816607E-08    8.805788E-10   -8.328229E-13   -5.896198E-13
        -9.983380E-14   -3.923587E-15    1.318325E-17    1.148814E-18   -2.767586E-21   -1.124823E-23    1.626352E-24    3.799728E-26    5.361357E-28    5.907751E-30
         5.584146E-32
  22     6.745018E-34    8.199253E-32    8.810329E-30    8.004700E-28    5.705100E-26    2.757285E-24    6.782349E-23    5.601470E-21    1.814053E-18    1.337979E-17
        -3.926771E-15   -8.778911E-14   -4.318047E-13   -1.757964E-12    2.428987E-10    4.144407E-09    2.428982E-10   -1.756517E-12   -4.323787E-13   -8.770669E-14
        -3.923587E-15    1.316082E-17    1.799579E-18    5.134305E-21    6.214990E-23    2.786287E-24    5.863249E-26    8.252446E-28    9.087302E-30    8.443574E-32
         6.915610E-34
  23     6.340588E-36    8.796416E-34    1.085315E-31    1.158912E-29    1.025888E-27    7.003269E-26    3.189565E-24    5.845964E-23    4.265858E-21    1.815007E-18
         1.334318E-17   -2.997840E-15   -5.754596E-14   -1.215014E-13   -8.227283E-13    2.386996E-11   -8.226132E-13   -1.215133E-13   -5.753326E-14   -2.996087E-15
         1.318325E-17    1.799579E-18    3.639535E-21    4.992164E-23    3.266803E-24    7.511933E-26    1.106708E-27    1.245756E-29    1.158415E-31    9.289368E-34
         6.595379E-36
  24     4.715245E-38    7.509437E-36    1.058955E-33    1.301919E-31    1.359451E-29    1.156459E-27    7.485486E-26    3.166222E-24    5.877764E-23    5.652105E-21
         1.157893E-18    1.443525E-17   -1.730618E-15   -2.570685E-14   -5.648640E-14   -3.076161E-14   -5.648648E-14   -2.570682E-14   -1.730350E-15    1.438183E-17
         1.148814E-18    5.134305E-21    4.992164E-23    3.278959E-24    8.285815E-26    1.301717E-27    1.524672E-29    1.443541E-31    1.154227E-33    7.998476E-36
         4.876108E-38
  25     2.798722E-40    5.203338E-38    8.448195E-36    1.191993E-33    1.441657E-31    1.459694E-29    1.193936E-27    7.447225E-26    3.177415E-24    6.853558E-23
        -2.512867E-21   -1.056489E-18    9.305053E-18   -7.359766E-16   -8.921715E-15   -9.130570E-15   -8.921911E-15   -7.360037E-16    9.295314E-18   -1.059517E-18
        -2.767586E-21    6.214990E-23    3.266803E-24    8.285815E-26    1.370267E-27    1.681950E-29    1.643206E-31    1.331001E-33    9.164013E-36    5.439894E-38
         2.798837E-40
  26     1.306808E-42    2.918366E-40    5.552060E-38    9.053125E-36    1.261554E-33    1.486098E-31    1.452515E-29    1.144786E-27    6.927418E-26    2.747225E-24
        -8.203960E-24   -1.372136E-20    1.178266E-19    4.730366E-18   -2.021573E-16   -2.404301E-15   -2.021654E-16    4.729085E-18    1.173910E-19   -1.378895E-20
        -1.124823E-23    2.786287E-24    7.511933E-26    1.301717E-27    1.681950E-29    1.715023E-31    1.428329E-33    9.933147E-36    5.844133E-38    2.922735E-40
         1.236632E-42
  27     4.650352E-45    1.302605E-42    2.989390E-40    5.731532E-38    9.253891E-36    1.258189E-33    1.431099E-31    1.343125E-29    1.012843E-27    5.665704E-26
         1.619752E-24   -4.655183E-23    4.834761E-21    5.431092E-20    1.747549E-18   -8.615350E-17    1.747501E-18    5.426585E-20    4.826835E-21   -4.729747E-23
         1.626352E-24    5.863249E-26    1.106708E-27    1.524672E-29    1.643206E-31    1.428329E-33    1.020156E-35    6.052885E-38    2.994489E-40    1.229116E-42
         4.113261E-45
  28     1.194689E-47    4.487668E-45    1.298564E-42    3.013307E-40    5.729272E-38    9.026172E-36    1.183081E-33    1.286342E-31    1.144196E-29    7.944550E-28
         3.739984E-26    1.046322E-24    1.067440E-22    1.806444E-21    1.563519E-20   -1.227683E-18    1.563552E-20    1.805911E-21    1.066694E-22    1.047581E-24
         3.799728E-26    8.252446E-28    1.245756E-29    1.443541E-31    1.331001E-33    9.933147E-36    6.052885E-38    3.017244E-40    1.222610E-42    3.955402E-45
         9.836523E-48
  29     1.999754E-50    1.132841E-47    4.430646E-45    1.300168E-42    2.992554E-40    5.544929E-38    8.400030E-36    1.047937E-33    1.072570E-31    8.744051E-30
         5.253017E-28    2.430475E-26    1.633010E-24    3.719614E-23    4.279128E-22   -1.187937E-20    4.279314E-22    3.719251E-23    1.633520E-24    2.443902E-26
         5.361357E-28    9.087302E-30    1.158415E-31    1.154227E-33    9.164013E-36    5.844133E-38    2.994489E-40    1.222610E-42    3.896272E-45    9.303084E-48
         1.534591E-50
  30     1.685086E-53    1.898074E-50    1.134646E-47    4.501900E-45    1.307268E-42    2.923712E-40    5.191272E-38    7.453874E-36    8.710194E-34    8.142282E-32
         5.773563E-30    3.279219E-28    2.014101E-26    5.520502E-25    8.260220E-24   -8.830378E-23    8.260629E-24    5.520694E-25    2.016462E-26    3.304303E-28
         5.907751E-30    8.443574E-32    9.289368E-34    7.998476E-36    5.439894E-38    2.922735E-40    1.229116E-42    3.955402E-45    9.303084E-48    1.454404E-50
         1.210384E-53
  31      0.00000        1.686113E-53    2.004686E-50    1.200344E-47    4.679141E-45    1.314113E-42    2.804894E-40    4.700904E-38    6.298154E-36    6.707879E-34
         5.453922E-32    3.550596E-30    2.170267E-28    6.772016E-27    1.184234E-25   -5.056846E-25    1.184297E-25    6.773149E-27    2.174787E-28    3.583143E-30
         5.584146E-32    6.915610E-34    6.595379E-36    4.876108E-38    2.798837E-40    1.236632E-42    4.113261E-45    9.836523E-48    1.534591E-50    1.210384E-53
          0.00000    

 CONCENTRATION WILL BE SAVED ON UNIT 1030 AT END OF TIME STEP    9, STRESS PERIOD    1


  MASS BUDGET FOR ENTIRE MODEL AT END OF TIME STEP    9, STRESS PERIOD   1
  ---------------------------------------------------------------------------------------------------

     CUMULATIVE MASS      M       RATES FOR THIS TIME STEP      M/T          PACKAGE NAME    
     ------------------                 ------------------------                     ----------------

           IN:                                      IN:
           ---                                      ---
     STORAGE-AQUEOUS =       2.8851E-03       STORAGE-AQUEOUS =       1.3001E-05     MST                              
                 WEL =  1971000000.0000                   WEL =     8640000.0000     SSM_WEL-1                        
                 CHD =           0.0000                   CHD =           0.0000     SSM_CHD-1                        

            TOTAL IN =  1971000000.0029              TOTAL IN =     8640000.0000

          OUT:                                     OUT:
          ----                                     ----
     STORAGE-AQUEOUS =  1971000000.0029       STORAGE-AQUEOUS =     8640000.0000     MST                              
                 WEL =           0.0000                   WEL =           0.0000     SSM_WEL-1                        
                 CHD =       8.9370E-20                   CHD =       1.1990E-21     SSM_CHD-1                        

           TOTAL OUT =  1971000000.0029             TOTAL OUT =     8640000.0000

            IN - OUT =       3.3855E-05              IN - OUT =       9.4995E-08

 PERCENT DISCREPANCY =           0.00     PERCENT DISCREPANCY =           0.00




         TIME SUMMARY AT END OF TIME STEP    9 IN STRESS PERIOD    1
                    SECONDS     MINUTES      HOURS       DAYS        YEARS
                    -----------------------------------------------------------
   TIME STEP LENGTH 2.19000E+06  36500.      608.33      25.347     6.93969E-02
 STRESS PERIOD TIME 1.97100E+07 3.28500E+05  5475.0      228.13     0.62457    
         TOTAL TIME 1.97100E+07 3.28500E+05  5475.0      228.13     0.62457    


end timestep


start timestep kper="1" kstp="10" mode="normal"

 UBDSV1 SAVING  STORAGE-AQUEOUS ON UNIT   1029 AT TIME STEP     10, STRESS PERIOD      1
 UBDSV1 SAVING     FLOW-JA-FACE ON UNIT   1029 AT TIME STEP     10, STRESS PERIOD      1
 UBDSV06 SAVING  SOURCE-SINK MIX IN MODEL GWT_P06-MF6      PACKAGE GWT_P06-MF6     CONNECTED TO MODEL GWT_P06-MF6      PACKAGE SSM              ON UNIT   1029 AT TIME STEP     10, STRESS PERIOD      1
1
  CONCENTRATION IN LAYER   1 AT END OF TIME STEP  10 IN STRESS PERIOD    1
  ---------------------------------------------------------------------------

                1               2               3               4               5               6               7               8               9              10
               11              12              13              14              15              16              17              18              19              20
               21              22              23              24              25              26              27              28              29              30
               31
 ................................................................................................................................................................................................................................................................................................................................................................................................................................................................................................................
   1      0.00000        3.983304E-53    4.860524E-50    2.989498E-47    1.195317E-44    3.422213E-42    7.341271E-40    1.205567E-37    1.526142E-35    1.481766E-33
         1.091667E-31    6.493994E-30    4.172812E-28    1.187371E-26    1.877999E-25   -1.839947E-24    1.877904E-25    1.187192E-26    4.167534E-28    6.453588E-30
         1.072839E-31    1.439962E-33    1.450494E-35    1.135694E-37    7.010865E-40    3.380715E-42    1.238715E-44    3.275490E-47    5.648525E-50    4.910432E-53
          0.00000    
   2     3.983304E-53    4.606523E-50    2.827239E-47    1.149226E-44    3.399731E-42    7.658316E-40    1.342581E-37    1.846752E-35    1.988395E-33    1.650416E-31
         1.026705E-29    5.149437E-28    3.504614E-26    8.732697E-25    1.207593E-23   -2.232602E-22    1.207533E-23    8.731912E-25    3.501666E-26    5.119849E-28
         1.009102E-29    1.598189E-31    1.869899E-33    1.705169E-35    1.243502E-37    7.264036E-40    3.355255E-42    1.192464E-44    3.102382E-47    5.358845E-50
         4.912558E-53
   3     4.860524E-50    2.827239E-47    1.131984E-44    3.380979E-42    7.841788E-40    1.440658E-37    2.111957E-35    2.466633E-33    2.269951E-31    1.597791E-29
         8.015734E-28    2.981110E-26    2.555016E-24    5.418111E-23    6.714735E-22   -2.247105E-20    6.714408E-22    5.417928E-23    2.553977E-24    2.964772E-26
         7.880472E-28    1.542694E-29    2.114809E-31    2.238707E-33    1.905965E-35    1.319424E-37    7.410197E-40    3.336283E-42    1.175733E-44    3.105393E-47
         5.658243E-50
   4     2.989498E-47    1.149226E-44    3.380979E-42    7.899891E-40    1.491245E-37    2.286429E-35    2.839493E-33    2.828242E-31    2.213876E-29    1.291678E-27
         4.631913E-26    5.069449E-25    1.526361E-22    2.777638E-21    4.254618E-20   -1.717195E-18    4.254472E-20    2.777814E-21    1.526693E-22    5.033650E-25
         4.554303E-26    1.243423E-27    2.043770E-29    2.527323E-31    2.506508E-33    2.033239E-35    1.357609E-37    7.454609E-40    3.337299E-42    1.194285E-44
         3.284875E-47
   5     1.195317E-44    3.399731E-42    7.841788E-40    1.491245E-37    2.347224E-35    3.043905E-33    3.215551E-31    2.718174E-29    1.785206E-27    8.358901E-26
         1.502122E-24   -1.325364E-22    7.237282E-21    1.502953E-19    4.392630E-18   -7.671574E-17    4.392638E-18    1.503231E-19    7.242332E-21   -1.319588E-22
         1.483374E-24    8.041776E-26    1.634769E-27    2.394240E-29    2.785645E-31    2.643735E-33    2.074057E-35    1.355925E-37    7.404294E-40    3.357961E-42
         1.242304E-44
   6     3.422213E-42    7.658316E-40    1.440658E-37    2.286429E-35    3.043905E-33    3.354080E-31    2.998491E-29    2.121733E-27    1.158057E-25    4.547733E-24
         2.772600E-23   -1.668779E-20    3.522462E-19    1.372449E-17   -1.826452E-16   -2.545456E-15   -1.826378E-16    1.372535E-17    3.525418E-19   -1.663283E-20
         3.017852E-23    4.461888E-24    1.065177E-25    1.851735E-27    2.560679E-29    2.864925E-31    2.635129E-33    2.024399E-35    1.314530E-37    7.251297E-40
         3.384214E-42
   7     7.341271E-40    1.342581E-37    2.111957E-35    2.839493E-33    3.215551E-31    2.998491E-29    2.237624E-27    1.311783E-25    6.461879E-24    3.374768E-22
         1.406553E-20   -6.107096E-19    3.126532E-17   -7.377262E-16   -9.062171E-15   -1.813161E-14   -9.061967E-15   -7.376988E-16    3.127069E-17   -6.083214E-19
         1.428922E-20    3.426801E-22    6.257797E-24    1.164569E-25    1.907793E-27    2.546236E-29    2.762257E-31    2.483874E-33    1.890463E-35    1.236048E-37
         6.990874E-40
   8     1.205567E-37    1.846752E-35    2.466633E-33    2.828242E-31    2.718174E-29    2.121733E-27    1.311783E-25    6.908860E-24    4.576524E-22    4.377691E-20
         3.130435E-18    5.320004E-17   -1.719475E-15   -2.718364E-14   -7.443824E-14   -3.978696E-13   -7.443773E-14   -2.718355E-14   -1.719777E-15    5.323514E-17
         3.138067E-18    4.427829E-20    4.649555E-22    6.624673E-24    1.157496E-25    1.829680E-27    2.361224E-29    2.492872E-31    2.210890E-33    1.687495E-35
         1.127241E-37
   9     1.526142E-35    1.988395E-33    2.269951E-31    2.213876E-29    1.785206E-27    1.158057E-25    6.461879E-24    4.576524E-22    4.969415E-20    4.851246E-18
         6.374652E-17   -3.053439E-15   -6.265156E-14   -1.631057E-13   -1.898404E-12    4.140664E-11   -1.898527E-12   -1.630873E-13   -6.265805E-14   -3.055803E-15
         6.388296E-17    4.866092E-18    5.036417E-20    4.651645E-22    6.230652E-24    1.051222E-25    1.609679E-27    2.013710E-29    2.086444E-31    1.847898E-33
         1.436545E-35
  10     1.481766E-33    1.650416E-31    1.597791E-29    1.291678E-27    8.358901E-26    4.547733E-24    3.374768E-22    4.377691E-20    4.851246E-18    6.885416E-17
        -4.078314E-15   -9.623288E-14   -5.256191E-13   -2.978847E-12    3.830729E-10    7.882746E-09    3.830735E-10   -2.980324E-12   -5.251272E-13   -9.629285E-14
        -4.083156E-15    6.908013E-17    4.867093E-18    4.433285E-20    3.432554E-22    4.438044E-24    7.960974E-26    1.231024E-27    1.528510E-29    1.584875E-31
         1.429607E-33
  11     1.091667E-31    1.026705E-29    8.015734E-28    4.631913E-26    1.502122E-24    2.772600E-23    1.406553E-20    3.130435E-18    6.374652E-17   -4.078314E-15
        -1.096135E-13   -7.235107E-13   -8.882533E-13    1.414025E-09    7.342196E-08    2.866572E-06    7.342196E-08    1.414036E-09   -8.958563E-13   -7.215358E-13
        -1.097507E-13   -4.083431E-15    6.390727E-17    3.139715E-18    1.434201E-20    3.075587E-23    1.475657E-24    4.527316E-26    7.834539E-28    1.003171E-29
         1.066515E-31
  12     6.493994E-30    5.149437E-28    2.981110E-26    5.069449E-25   -1.325364E-22   -1.668779E-20   -6.107096E-19    5.320004E-17   -3.053439E-15   -9.623288E-14
        -7.235107E-13    7.930525E-13    2.571137E-09    2.381622E-07    1.964526E-05    7.514362E-04    1.964526E-05    2.381622E-07    2.571170E-09    7.770581E-13
        -7.212686E-13   -9.631145E-14   -3.056334E-15    5.324734E-17   -6.075172E-19   -1.661266E-20   -1.317304E-22    5.023147E-25    2.958862E-26    5.108714E-28
         6.438030E-30
  13     4.172812E-28    3.504614E-26    2.555016E-24    1.526361E-22    7.237282E-21    3.522462E-19    3.126532E-17   -1.719475E-15   -6.265156E-14   -5.256191E-13
        -8.882533E-13    2.571137E-09    3.437646E-07    4.509768E-05    3.435796E-03    0.123763        3.435796E-03    4.509768E-05    3.437647E-07    2.571168E-09
        -8.973351E-13   -5.249440E-13   -6.266222E-14   -1.719950E-15    3.127260E-17    3.526712E-19    7.245195E-21    1.527003E-22    2.553837E-24    3.500807E-26
         4.165722E-28
  14     1.187371E-26    8.732697E-25    5.418111E-23    2.777638E-21    1.502953E-19    1.372449E-17   -7.377262E-16   -2.718364E-14   -1.631057E-13   -2.978847E-12
         1.414025E-09    2.381622E-07    4.509768E-05    5.218373E-03    0.321148         6.80790        0.321148        5.218373E-03    4.509768E-05    2.381622E-07
         1.414037E-09   -2.980642E-12   -1.630804E-13   -2.718376E-14   -7.376996E-16    1.372566E-17    1.503362E-19    2.778035E-21    5.418181E-23    8.732130E-25
         1.187198E-26
  15     1.877999E-25    1.207593E-23    6.714735E-22    4.254618E-20    4.392630E-18   -1.826452E-16   -9.062171E-15   -7.443824E-14   -1.898404E-12    3.830729E-10
         7.342196E-08    1.964526E-05    3.435796E-03    0.321148         9.39677         55.5311         9.39677        0.321148        3.435796E-03    1.964526E-05
         7.342197E-08    3.830737E-10   -1.898554E-12   -7.443771E-14   -9.061936E-15   -1.826368E-16    4.392640E-18    4.254460E-20    6.714378E-22    1.207527E-23
         1.877894E-25
  16    -1.839947E-24   -2.232602E-22   -2.247105E-20   -1.717195E-18   -7.671574E-17   -2.545456E-15   -1.813161E-14   -3.978696E-13    4.140664E-11    7.882746E-09
         2.866572E-06    7.514362E-04    0.123763         6.80790         55.5311         96.1840         55.5311         6.80790        0.123763        7.514362E-04
         2.866572E-06    7.882746E-09    4.140665E-11   -3.978696E-13   -1.813161E-14   -2.545456E-15   -7.671575E-17   -1.717195E-18   -2.247105E-20   -2.232602E-22
        -1.839947E-24
  17     1.877904E-25    1.207533E-23    6.714408E-22    4.254472E-20    4.392638E-18   -1.826378E-16   -9.061967E-15   -7.443773E-14   -1.898527E-12    3.830735E-10
         7.342196E-08    1.964526E-05    3.435796E-03    0.321148         9.39677         55.5311         9.39677        0.321148        3.435796E-03    1.964526E-05
         7.342196E-08    3.830729E-10   -1.898404E-12   -7.443823E-14   -9.062170E-15   -1.826452E-16    4.392630E-18    4.254617E-20    6.714735E-22    1.207593E-23
         1.877998E-25
  18     1.187192E-26    8.731912E-25    5.417928E-23    2.777814E-21    1.503231E-19    1.372535E-17   -7.376988E-16   -2.718355E-14   -1.630873E-13   -2.980324E-12
         1.414036E-09    2.381622E-07    4.509768E-05    5.218373E-03    0.321148         6.80790        0.321148        5.218373E-03    4.509768E-05    2.381622E-07
         1.414025E-09   -2.978846E-12   -1.631057E-13   -2.718364E-14   -7.377263E-16    1.372449E-17    1.502953E-19    2.777638E-21    5.418111E-23    8.732697E-25
         1.187371E-26
  19     4.167534E-28    3.501666E-26    2.553977E-24    1.526693E-22    7.242332E-21    3.525418E-19    3.127069E-17   -1.719777E-15   -6.265805E-14   -5.251272E-13
        -8.958563E-13    2.571170E-09    3.437647E-07    4.509768E-05    3.435796E-03    0.123763        3.435796E-03    4.509768E-05    3.437646E-07    2.571137E-09
        -8.882534E-13   -5.256191E-13   -6.265156E-14   -1.719475E-15    3.126532E-17    3.522462E-19    7.237282E-21    1.526361E-22    2.555016E-24    3.504614E-26
         4.172812E-28
  20     6.453588E-30    5.119849E-28    2.964772E-26    5.033650E-25   -1.319588E-22   -1.663283E-20   -6.083214E-19    5.323514E-17   -3.055803E-15   -9.629285E-14
        -7.215358E-13    7.770581E-13    2.571168E-09    2.381622E-07    1.964526E-05    7.514362E-04    1.964526E-05    2.381622E-07    2.571137E-09    7.930522E-13
        -7.235107E-13   -9.623288E-14   -3.053439E-15    5.320004E-17   -6.107096E-19   -1.668779E-20   -1.325364E-22    5.069448E-25    2.981110E-26    5.149437E-28
         6.493994E-30
  21     1.072839E-31    1.009102E-29    7.880472E-28    4.554303E-26    1.483374E-24    3.017852E-23    1.428922E-20    3.138067E-18    6.388296E-17   -4.083156E-15
        -1.097507E-13   -7.212686E-13   -8.973351E-13    1.414037E-09    7.342197E-08    2.866572E-06    7.342196E-08    1.414025E-09   -8.882534E-13   -7.235107E-13
        -1.096135E-13   -4.078314E-15    6.374652E-17    3.130435E-18    1.406553E-20    2.772599E-23    1.502122E-24    4.631913E-26    8.015734E-28    1.026705E-29
         1.091667E-31
  22     1.439962E-33    1.598189E-31    1.542694E-29    1.243423E-27    8.041776E-26    4.461888E-24    3.426801E-22    4.427829E-20    4.866092E-18    6.908013E-17
        -4.083431E-15   -9.631145E-14   -5.249440E-13   -2.980642E-12    3.830737E-10    7.882746E-09    3.830729E-10   -2.978846E-12   -5.256191E-13   -9.623288E-14
        -4.078314E-15    6.885416E-17    4.851246E-18    4.377691E-20    3.374768E-22    4.547733E-24    8.358901E-26    1.291678E-27    1.597791E-29    1.650416E-31
         1.481766E-33
  23     1.450494E-35    1.869899E-33    2.114809E-31    2.043770E-29    1.634769E-27    1.065177E-25    6.257797E-24    4.649555E-22    5.036417E-20    4.867093E-18
         6.390727E-17   -3.056334E-15   -6.266222E-14   -1.630804E-13   -1.898554E-12    4.140665E-11   -1.898404E-12   -1.631057E-13   -6.265156E-14   -3.053439E-15
         6.374652E-17    4.851246E-18    4.969415E-20    4.576524E-22    6.461879E-24    1.158057E-25    1.785206E-27    2.213876E-29    2.269951E-31    1.988395E-33
         1.526142E-35
  24     1.135694E-37    1.705169E-35    2.238707E-33    2.527323E-31    2.394240E-29    1.851735E-27    1.164569E-25    6.624673E-24    4.651645E-22    4.433285E-20
         3.139715E-18    5.324734E-17   -1.719950E-15   -2.718376E-14   -7.443771E-14   -3.978696E-13   -7.443823E-14   -2.718364E-14   -1.719475E-15    5.320004E-17
         3.130435E-18    4.377691E-20    4.576524E-22    6.908860E-24    1.311783E-25    2.121733E-27    2.718174E-29    2.828242E-31    2.466633E-33    1.846752E-35
         1.205567E-37
  25     7.010865E-40    1.243502E-37    1.905965E-35    2.506508E-33    2.785645E-31    2.560679E-29    1.907793E-27    1.157496E-25    6.230652E-24    3.432554E-22
         1.434201E-20   -6.075172E-19    3.127260E-17   -7.376996E-16   -9.061936E-15   -1.813161E-14   -9.062170E-15   -7.377263E-16    3.126532E-17   -6.107096E-19
         1.406553E-20    3.374768E-22    6.461879E-24    1.311783E-25    2.237624E-27    2.998491E-29    3.215551E-31    2.839493E-33    2.111957E-35    1.342581E-37
         7.341271E-40
  26     3.380715E-42    7.264036E-40    1.319424E-37    2.033239E-35    2.643735E-33    2.864925E-31    2.546236E-29    1.829680E-27    1.051222E-25    4.438044E-24
         3.075587E-23   -1.661266E-20    3.526712E-19    1.372566E-17   -1.826368E-16   -2.545456E-15   -1.826452E-16    1.372449E-17    3.522462E-19   -1.668779E-20
         2.772599E-23    4.547733E-24    1.158057E-25    2.121733E-27    2.998491E-29    3.354080E-31    3.043905E-33    2.286429E-35    1.440658E-37    7.658316E-40
         3.422213E-42
  27     1.238715E-44    3.355255E-42    7.410197E-40    1.357609E-37    2.074057E-35    2.635129E-33    2.762257E-31    2.361224E-29    1.609679E-27    7.960974E-26
         1.475657E-24   -1.317304E-22    7.245195E-21    1.503362E-19    4.392640E-18   -7.671575E-17    4.392630E-18    1.502953E-19    7.237282E-21   -1.325364E-22
         1.502122E-24    8.358901E-26    1.785206E-27    2.718174E-29    3.215551E-31    3.043905E-33    2.347224E-35    1.491245E-37    7.841788E-40    3.399731E-42
         1.195317E-44
  28     3.275490E-47    1.192464E-44    3.336283E-42    7.454609E-40    1.355925E-37    2.024399E-35    2.483874E-33    2.492872E-31    2.013710E-29    1.231024E-27
         4.527316E-26    5.023147E-25    1.527003E-22    2.778035E-21    4.254460E-20   -1.717195E-18    4.254617E-20    2.777638E-21    1.526361E-22    5.069448E-25
         4.631913E-26    1.291678E-27    2.213876E-29    2.828242E-31    2.839493E-33    2.286429E-35    1.491245E-37    7.899891E-40    3.380979E-42    1.149226E-44
         2.989498E-47
  29     5.648525E-50    3.102382E-47    1.175733E-44    3.337299E-42    7.404294E-40    1.314530E-37    1.890463E-35    2.210890E-33    2.086444E-31    1.528510E-29
         7.834539E-28    2.958862E-26    2.553837E-24    5.418181E-23    6.714378E-22   -2.247105E-20    6.714735E-22    5.418111E-23    2.555016E-24    2.981110E-26
         8.015734E-28    1.597791E-29    2.269951E-31    2.466633E-33    2.111957E-35    1.440658E-37    7.841788E-40    3.380979E-42    1.131984E-44    2.827239E-47
         4.860524E-50
  30     4.910432E-53    5.358845E-50    3.105393E-47    1.194285E-44    3.357961E-42    7.251297E-40    1.236048E-37    1.687495E-35    1.847898E-33    1.584875E-31
         1.003171E-29    5.108714E-28    3.500807E-26    8.732130E-25    1.207527E-23   -2.232602E-22    1.207593E-23    8.732697E-25    3.504614E-26    5.149437E-28
         1.026705E-29    1.650416E-31    1.988395E-33    1.846752E-35    1.342581E-37    7.658316E-40    3.399731E-42    1.149226E-44    2.827239E-47    4.606523E-50
         3.983304E-53
  31      0.00000        4.912558E-53    5.658243E-50    3.284875E-47    1.242304E-44    3.384214E-42    6.990874E-40    1.127241E-37    1.436545E-35    1.429607E-33
         1.066515E-31    6.438030E-30    4.165722E-28    1.187198E-26    1.877894E-25   -1.839947E-24    1.877998E-25    1.187371E-26    4.172812E-28    6.493994E-30
         1.091667E-31    1.481766E-33    1.526142E-35    1.205567E-37    7.341271E-40    3.422213E-42    1.195317E-44    2.989498E-47    4.860524E-50    3.983304E-53
          0.00000    

 CONCENTRATION WILL BE SAVED ON UNIT 1030 AT END OF TIME STEP   10, STRESS PERIOD    1


  MASS BUDGET FOR ENTIRE MODEL AT END OF TIME STEP   10, STRESS PERIOD   1
  ---------------------------------------------------------------------------------------------------

     CUMULATIVE MASS      M       RATES FOR THIS TIME STEP      M/T          PACKAGE NAME    
     ------------------                 ------------------------                     ----------------

           IN:                                      IN:
           ---                                      ---
     STORAGE-AQUEOUS =       3.0144E-03       STORAGE-AQUEOUS =       5.0994E-06     MST                              
                 WEL =  2190000000.0000                   WEL =     8640000.0000     SSM_WEL-1                        
                 CHD =           0.0000                   CHD =           0.0000     SSM_CHD-1                        

            TOTAL IN =  2190000000.0030              TOTAL IN =     8640000.0000

          OUT:                                     OUT:
          ----                                     ----
     STORAGE-AQUEOUS =  2190000000.0030       STORAGE-AQUEOUS =     8640000.0000     MST                              
                 WEL =           0.0000                   WEL =           0.0000     SSM_WEL-1                        
                 CHD =       1.3785E-19                   CHD =       1.9125E-21     SSM_CHD-1                        

           TOTAL OUT =  2190000000.0030             TOTAL OUT =     8640000.0000

            IN - OUT =       3.7193E-05              IN - OUT =       1.1735E-07

 PERCENT DISCREPANCY =           0.00     PERCENT DISCREPANCY =           0.00




         TIME SUMMARY AT END OF TIME STEP   10 IN STRESS PERIOD    1
                    SECONDS     MINUTES      HOURS       DAYS        YEARS
                    -----------------------------------------------------------
   TIME STEP LENGTH 2.19000E+06  36500.      608.33      25.347     6.93969E-02
 STRESS PERIOD TIME 2.19000E+07 3.65000E+05  6083.3      253.47     0.69397    
         TOTAL TIME 2.19000E+07 3.65000E+05  6083.3      253.47     0.69397    


end timestep


start timestep kper="1" kstp="11" mode="normal"

 UBDSV1 SAVING  STORAGE-AQUEOUS ON UNIT   1029 AT TIME STEP     11, STRESS PERIOD      1
 UBDSV1 SAVING     FLOW-JA-FACE ON UNIT   1029 AT TIME STEP     11, STRESS PERIOD      1
 UBDSV06 SAVING  SOURCE-SINK MIX IN MODEL GWT_P06-MF6      PACKAGE GWT_P06-MF6     CONNECTED TO MODEL GWT_P06-MF6      PACKAGE SSM              ON UNIT   1029 AT TIME STEP     11, STRESS PERIOD      1
1
  CONCENTRATION IN LAYER   1 AT END OF TIME STEP  11 IN STRESS PERIOD    1
  ---------------------------------------------------------------------------

                1               2               3               4               5               6               7               8               9              10
               11              12              13              14              15              16              17              18              19              20
               21              22              23              24              25              26              27              28              29              30
               31
 ................................................................................................................................................................................................................................................................................................................................................................................................................................................................................................................
   1      0.00000        1.203763E-52    1.411860E-49    8.322566E-47    3.178936E-44    8.663326E-42    1.761941E-39    2.730190E-37    3.239068E-35    2.911045E-33
         1.945083E-31    1.070738E-29    7.483587E-28    1.987488E-26    2.950610E-25   -4.439664E-24    2.950454E-25    1.987188E-26    7.475347E-28    1.064078E-29
         1.910243E-31    2.820333E-33    3.056931E-35    2.532626E-37    1.636525E-39    8.202696E-42    3.110421E-44    8.490971E-47    1.509825E-49    1.352799E-52
          0.00000    
   2     1.203763E-52    1.338073E-49    7.870494E-47    3.055865E-44    8.603189E-42    1.836882E-39    3.038806E-37    3.923915E-35    3.934786E-33    2.991021E-31
         1.642252E-29    7.321112E-28    5.812020E-26    1.371328E-24    1.883749E-23   -4.352488E-22    1.883647E-23    1.371163E-24    5.807343E-26    7.274283E-28
         1.611134E-29    2.887039E-31    3.682389E-33    3.587013E-35    2.761222E-37    1.688618E-39    8.115914E-42    2.988653E-44    8.034486E-47    1.431785E-49
         1.353174E-52
   3     1.411860E-49    7.870494E-47    3.009882E-44    8.554303E-42    1.880209E-39    3.259246E-37    4.488189E-35    4.900054E-33    4.182537E-31    2.672838E-29
         1.133620E-27    3.269383E-26    3.964266E-24    8.402259E-23    1.190894E-21   -3.540680E-20    1.190833E-21    8.401478E-23    3.962381E-24    3.243088E-26
         1.109682E-27    2.568873E-29    3.880138E-31    4.417316E-33    3.999097E-35    2.920115E-37    1.717864E-39    8.055183E-42    2.943675E-44    8.038140E-47
         1.511379E-49
   4     8.322566E-47    3.055865E-44    8.554303E-42    1.893912E-39    3.372782E-37    4.858283E-35    5.649257E-33    5.258113E-31    3.836566E-29    2.048900E-27
         5.919618E-26   -2.258112E-25    2.333075E-22    4.862642E-21    8.901986E-20   -2.107587E-18    8.901661E-20    4.862529E-21    2.333182E-22   -2.337113E-25
         5.774441E-26    1.960782E-27    3.527044E-29    4.674636E-31    4.943811E-33    4.256740E-35    2.998493E-37    1.725827E-39    8.052307E-42    2.989495E-44
         8.502226E-47
   5     3.178936E-44    8.603189E-42    1.880209E-39    3.372782E-37    4.987047E-35    6.058556E-33    6.000987E-31    4.797189E-29    3.040843E-27    1.411754E-25
         2.605818E-24   -1.875646E-22    1.265573E-20    3.213767E-19    7.504433E-18   -6.214343E-17    7.504379E-18    3.213952E-19    1.266019E-20   -1.870237E-22
         2.563555E-24    1.355147E-25    2.782099E-27    4.212328E-29    5.166765E-31    5.209766E-33    4.337232E-35    2.993105E-37    1.714352E-39    8.106640E-42
         3.111774E-44
   6     8.663326E-42    1.836882E-39    3.259246E-37    4.858283E-35    6.058556E-33    6.265776E-31    5.330115E-29    3.737442E-27    2.206579E-25    1.077935E-23
         2.741085E-22   -1.332375E-20    7.905936E-19    2.458288E-17   -1.728297E-16   -2.747527E-15   -1.728235E-16    2.458352E-17    7.908500E-19   -1.326432E-20
         2.762857E-22    1.060632E-23    2.052473E-25    3.277226E-27    4.539135E-29    5.315743E-31    5.190819E-33    4.234420E-35    2.904692E-37    1.681657E-39
         8.185456E-42
   7     1.761941E-39    3.038806E-37    4.488189E-35    5.649257E-33    6.000987E-31    5.330115E-29    3.980227E-27    2.629692E-25    1.708355E-23    1.093926E-21
         4.925821E-20    2.351582E-19    5.883509E-17   -7.842212E-16   -9.404507E-15   -2.550621E-14   -9.404269E-15   -7.842013E-16    5.883721E-17    2.375767E-19
         4.949411E-20    1.097887E-21    1.669000E-23    2.385858E-25    3.417043E-27    4.512792E-29    5.120360E-31    4.894213E-33    3.960353E-35    2.738265E-37
         1.626545E-39
   8     2.730190E-37    3.923915E-35    4.900054E-33    5.258113E-31    4.797189E-29    3.737442E-27    2.629692E-25    1.910520E-23    1.533080E-21    1.141089E-19
         5.812826E-18    1.025272E-16   -1.776549E-15   -2.939193E-14   -9.878954E-14   -7.927554E-13   -9.878879E-14   -2.939175E-14   -1.777183E-15    1.025477E-16
         5.820667E-18    1.146341E-19    1.537802E-21    1.856758E-23    2.374199E-25    3.239484E-27    4.151772E-29    4.606245E-31    4.356604E-33    3.543185E-35
         2.506964E-37
   9     3.239068E-35    3.934786E-33    4.182537E-31    3.836566E-29    3.040843E-27    2.206579E-25    1.708355E-23    1.533080E-21    1.329058E-19    8.813850E-18
         1.285799E-16   -3.245680E-15   -6.956232E-14   -2.476868E-13   -2.607041E-12    6.698096E-11   -2.607194E-12   -2.476592E-13   -6.956593E-14   -3.250331E-15
         1.286997E-16    8.829453E-18    1.336055E-19    1.537833E-21    1.664152E-23    2.029412E-25    2.738333E-27    3.471047E-29    3.823285E-31    3.633995E-33
         3.021920E-35
  10     2.911045E-33    2.991021E-31    2.672838E-29    2.048900E-27    1.411754E-25    1.077935E-23    1.093926E-21    1.141089E-19    8.813850E-18    1.402736E-16
        -4.443217E-15   -1.075524E-13   -7.039639E-13   -2.294583E-12    6.104949E-10    1.436581E-08    6.104958E-10   -2.296326E-12   -7.034053E-13   -1.076021E-13
        -4.452535E-15    1.404896E-16    8.830540E-18    1.146920E-19    1.098214E-21    1.056255E-23    1.340724E-25    1.937527E-27    2.540991E-29    2.859135E-31
         2.796334E-33
  11     1.945083E-31    1.642252E-29    1.133620E-27    5.919618E-26    2.605818E-24    2.741085E-22    4.925821E-20    5.812826E-18    1.285799E-16   -4.443217E-15
        -1.225784E-13   -9.706984E-13    3.616495E-12    2.317307E-09    1.341955E-07    4.913907E-06    1.341955E-07    2.317321E-09    3.607431E-12   -9.684618E-13
        -1.227043E-13   -4.453031E-15    1.287255E-16    5.822458E-18    4.955216E-20    2.768118E-22    2.548371E-24    5.723787E-26    1.101275E-27    1.600205E-29
         1.898057E-31
  12     1.070738E-29    7.321112E-28    3.269383E-26   -2.258112E-25   -1.875646E-22   -1.332375E-20    2.351582E-19    1.025272E-16   -3.245680E-15   -1.075524E-13
        -9.706984E-13    7.647351E-12    4.318963E-09    4.339317E-07    3.356887E-05    1.209952E-03    3.356887E-05    4.339316E-07    4.319008E-09    7.628004E-12
        -9.681565E-13   -1.076202E-13   -3.251260E-15    1.025586E-16    2.384579E-19   -1.324101E-20   -1.867740E-22   -2.360016E-25    3.233632E-26    7.256566E-28
         1.061495E-29
  13     7.483587E-28    5.812020E-26    3.964266E-24    2.333075E-22    1.265573E-20    7.905936E-19    5.883509E-17   -1.776549E-15   -6.956232E-14   -7.039639E-13
         3.616495E-12    4.318963E-09    6.254460E-07    7.683265E-05    5.493878E-03    0.183084        5.493878E-03    7.683265E-05    6.254461E-07    4.319009E-09
         3.605580E-12   -7.031977E-13   -6.956931E-14   -1.777494E-15    5.883806E-17    7.909780E-19    1.266336E-20    2.333520E-22    3.962093E-24    5.806042E-26
         7.472629E-28
  14     1.987488E-26    1.371328E-24    8.402259E-23    4.862642E-21    3.213767E-19    2.458288E-17   -7.842212E-16   -2.939193E-14   -2.476868E-13   -2.294583E-12
         2.317307E-09    4.339317E-07    7.683265E-05    8.301130E-03    0.466958         8.63179        0.466958        8.301130E-03    7.683265E-05    4.339317E-07
         2.317323E-09   -2.296719E-12   -2.476494E-13   -2.939196E-14   -7.842078E-16    2.458377E-17    3.214074E-19    4.862742E-21    8.401723E-23    1.371187E-24
         1.987200E-26
  15     2.950610E-25    1.883749E-23    1.190894E-21    8.901986E-20    7.504433E-18   -1.728297E-16   -9.404507E-15   -9.878954E-14   -2.607041E-12    6.104949E-10
         1.341955E-07    3.356887E-05    5.493878E-03    0.466958         11.7855         60.3501         11.7855        0.466958        5.493878E-03    3.356887E-05
         1.341955E-07    6.104961E-10   -2.607228E-12   -9.878878E-14   -9.404232E-15   -1.728226E-16    7.504371E-18    8.901629E-20    1.190827E-21    1.883638E-23
         2.950438E-25
  16    -4.439664E-24   -4.352488E-22   -3.540680E-20   -2.107587E-18   -6.214343E-17   -2.747527E-15   -2.550621E-14   -7.927554E-13    6.698096E-11    1.436581E-08
         4.913907E-06    1.209952E-03    0.183084         8.63179         60.3501         97.2473         60.3501         8.63179        0.183084        1.209952E-03
         4.913907E-06    1.436581E-08    6.698096E-11   -7.927553E-13   -2.550621E-14   -2.747527E-15   -6.214343E-17   -2.107587E-18   -3.540680E-20   -4.352488E-22
        -4.439664E-24
  17     2.950454E-25    1.883647E-23    1.190833E-21    8.901661E-20    7.504379E-18   -1.728235E-16   -9.404269E-15   -9.878879E-14   -2.607194E-12    6.104958E-10
         1.341955E-07    3.356887E-05    5.493878E-03    0.466958         11.7855         60.3501         11.7855        0.466958        5.493878E-03    3.356887E-05
         1.341955E-07    6.104949E-10   -2.607041E-12   -9.878953E-14   -9.404507E-15   -1.728297E-16    7.504433E-18    8.901985E-20    1.190894E-21    1.883748E-23
         2.950610E-25
  18     1.987188E-26    1.371163E-24    8.401478E-23    4.862529E-21    3.213952E-19    2.458352E-17   -7.842013E-16   -2.939175E-14   -2.476592E-13   -2.296326E-12
         2.317321E-09    4.339316E-07    7.683265E-05    8.301130E-03    0.466958         8.63179        0.466958        8.301130E-03    7.683265E-05    4.339317E-07
         2.317307E-09   -2.294582E-12   -2.476868E-13   -2.939193E-14   -7.842212E-16    2.458288E-17    3.213767E-19    4.862642E-21    8.402258E-23    1.371328E-24
         1.987488E-26
  19     7.475347E-28    5.807343E-26    3.962381E-24    2.333182E-22    1.266019E-20    7.908500E-19    5.883721E-17   -1.777183E-15   -6.956593E-14   -7.034053E-13
         3.607431E-12    4.319008E-09    6.254461E-07    7.683265E-05    5.493878E-03    0.183084        5.493878E-03    7.683265E-05    6.254460E-07    4.318963E-09
         3.616495E-12   -7.039639E-13   -6.956232E-14   -1.776549E-15    5.883509E-17    7.905935E-19    1.265573E-20    2.333075E-22    3.964266E-24    5.812020E-26
         7.483587E-28
  20     1.064078E-29    7.274283E-28    3.243088E-26   -2.337113E-25   -1.870237E-22   -1.326432E-20    2.375767E-19    1.025477E-16   -3.250331E-15   -1.076021E-13
        -9.684618E-13    7.628004E-12    4.319009E-09    4.339317E-07    3.356887E-05    1.209952E-03    3.356887E-05    4.339317E-07    4.318963E-09    7.647351E-12
        -9.706984E-13   -1.075524E-13   -3.245680E-15    1.025272E-16    2.351582E-19   -1.332375E-20   -1.875646E-22   -2.258114E-25    3.269383E-26    7.321111E-28
         1.070738E-29
  21     1.910243E-31    1.611134E-29    1.109682E-27    5.774441E-26    2.563555E-24    2.762857E-22    4.949411E-20    5.820667E-18    1.286997E-16   -4.452535E-15
        -1.227043E-13   -9.681565E-13    3.605580E-12    2.317323E-09    1.341955E-07    4.913907E-06    1.341955E-07    2.317307E-09    3.616495E-12   -9.706984E-13
        -1.225784E-13   -4.443217E-15    1.285799E-16    5.812826E-18    4.925821E-20    2.741085E-22    2.605817E-24    5.919618E-26    1.133620E-27    1.642252E-29
         1.945083E-31
  22     2.820333E-33    2.887039E-31    2.568873E-29    1.960782E-27    1.355147E-25    1.060632E-23    1.097887E-21    1.146341E-19    8.829453E-18    1.404896E-16
        -4.453031E-15   -1.076202E-13   -7.031977E-13   -2.296719E-12    6.104961E-10    1.436581E-08    6.104949E-10   -2.294582E-12   -7.039639E-13   -1.075524E-13
        -4.443217E-15    1.402736E-16    8.813850E-18    1.141089E-19    1.093926E-21    1.077935E-23    1.411754E-25    2.048900E-27    2.672838E-29    2.991021E-31
         2.911045E-33
  23     3.056931E-35    3.682389E-33    3.880138E-31    3.527044E-29    2.782099E-27    2.052473E-25    1.669000E-23    1.537802E-21    1.336055E-19    8.830540E-18
         1.287255E-16   -3.251260E-15   -6.956931E-14   -2.476494E-13   -2.607228E-12    6.698096E-11   -2.607041E-12   -2.476868E-13   -6.956232E-14   -3.245680E-15
         1.285799E-16    8.813850E-18    1.329058E-19    1.533080E-21    1.708355E-23    2.206579E-25    3.040843E-27    3.836566E-29    4.182537E-31    3.934786E-33
         3.239068E-35
  24     2.532626E-37    3.587013E-35    4.417316E-33    4.674636E-31    4.212328E-29    3.277226E-27    2.385858E-25    1.856758E-23    1.537833E-21    1.146920E-19
         5.822458E-18    1.025586E-16   -1.777494E-15   -2.939196E-14   -9.878878E-14   -7.927553E-13   -9.878953E-14   -2.939193E-14   -1.776549E-15    1.025272E-16
         5.812826E-18    1.141089E-19    1.533080E-21    1.910520E-23    2.629692E-25    3.737442E-27    4.797189E-29    5.258113E-31    4.900054E-33    3.923915E-35
         2.730190E-37
  25     1.636525E-39    2.761222E-37    3.999097E-35    4.943811E-33    5.166765E-31    4.539135E-29    3.417043E-27    2.374199E-25    1.664152E-23    1.098214E-21
         4.955216E-20    2.384579E-19    5.883806E-17   -7.842078E-16   -9.404232E-15   -2.550621E-14   -9.404507E-15   -7.842212E-16    5.883509E-17    2.351582E-19
         4.925821E-20    1.093926E-21    1.708355E-23    2.629692E-25    3.980227E-27    5.330115E-29    6.000987E-31    5.649257E-33    4.488189E-35    3.038806E-37
         1.761941E-39
  26     8.202696E-42    1.688618E-39    2.920115E-37    4.256740E-35    5.209766E-33    5.315743E-31    4.512792E-29    3.239484E-27    2.029412E-25    1.056255E-23
         2.768118E-22   -1.324101E-20    7.909780E-19    2.458377E-17   -1.728226E-16   -2.747527E-15   -1.728297E-16    2.458288E-17    7.905935E-19   -1.332375E-20
         2.741085E-22    1.077935E-23    2.206579E-25    3.737442E-27    5.330115E-29    6.265776E-31    6.058556E-33    4.858283E-35    3.259246E-37    1.836882E-39
         8.663326E-42
  27     3.110421E-44    8.115914E-42    1.717864E-39    2.998493E-37    4.337232E-35    5.190819E-33    5.120360E-31    4.151772E-29    2.738333E-27    1.340724E-25
         2.548371E-24   -1.867740E-22    1.266336E-20    3.214074E-19    7.504371E-18   -6.214343E-17    7.504433E-18    3.213767E-19    1.265573E-20   -1.875646E-22
         2.605817E-24    1.411754E-25    3.040843E-27    4.797189E-29    6.000987E-31    6.058556E-33    4.987047E-35    3.372782E-37    1.880209E-39    8.603189E-42
         3.178936E-44
  28     8.490971E-47    2.988653E-44    8.055183E-42    1.725827E-39    2.993105E-37    4.234420E-35    4.894213E-33    4.606245E-31    3.471047E-29    1.937527E-27
         5.723787E-26   -2.360016E-25    2.333520E-22    4.862742E-21    8.901629E-20   -2.107587E-18    8.901985E-20    4.862642E-21    2.333075E-22   -2.258114E-25
         5.919618E-26    2.048900E-27    3.836566E-29    5.258113E-31    5.649257E-33    4.858283E-35    3.372782E-37    1.893912E-39    8.554303E-42    3.055865E-44
         8.322566E-47
  29     1.509825E-49    8.034486E-47    2.943675E-44    8.052307E-42    1.714352E-39    2.904692E-37    3.960353E-35    4.356604E-33    3.823285E-31    2.540991E-29
         1.101275E-27    3.233632E-26    3.962093E-24    8.401723E-23    1.190827E-21   -3.540680E-20    1.190894E-21    8.402258E-23    3.964266E-24    3.269383E-26
         1.133620E-27    2.672838E-29    4.182537E-31    4.900054E-33    4.488189E-35    3.259246E-37    1.880209E-39    8.554303E-42    3.009882E-44    7.870494E-47
         1.411860E-49
  30     1.352799E-52    1.431785E-49    8.038140E-47    2.989495E-44    8.106640E-42    1.681657E-39    2.738265E-37    3.543185E-35    3.633995E-33    2.859135E-31
         1.600205E-29    7.256566E-28    5.806042E-26    1.371187E-24    1.883638E-23   -4.352488E-22    1.883748E-23    1.371328E-24    5.812020E-26    7.321111E-28
         1.642252E-29    2.991021E-31    3.934786E-33    3.923915E-35    3.038806E-37    1.836882E-39    8.603189E-42    3.055865E-44    7.870494E-47    1.338073E-49
         1.203763E-52
  31      0.00000        1.353174E-52    1.511379E-49    8.502226E-47    3.111774E-44    8.185456E-42    1.626545E-39    2.506964E-37    3.021920E-35    2.796334E-33
         1.898057E-31    1.061495E-29    7.472629E-28    1.987200E-26    2.950438E-25   -4.439664E-24    2.950610E-25    1.987488E-26    7.483587E-28    1.070738E-29
         1.945083E-31    2.911045E-33    3.239068E-35    2.730190E-37    1.761941E-39    8.663326E-42    3.178936E-44    8.322566E-47    1.411860E-49    1.203763E-52
          0.00000    

 CONCENTRATION WILL BE SAVED ON UNIT 1030 AT END OF TIME STEP   11, STRESS PERIOD    1


  MASS BUDGET FOR ENTIRE MODEL AT END OF TIME STEP   11, STRESS PERIOD   1
  ---------------------------------------------------------------------------------------------------

     CUMULATIVE MASS      M       RATES FOR THIS TIME STEP      M/T          PACKAGE NAME    
     ------------------                 ------------------------                     ----------------

           IN:                                      IN:
           ---                                      ---
     STORAGE-AQUEOUS =       3.0811E-03       STORAGE-AQUEOUS =       2.6344E-06     MST                              
                 WEL =  2409000000.0000                   WEL =     8640000.0000     SSM_WEL-1                        
                 CHD =           0.0000                   CHD =           0.0000     SSM_CHD-1                        

            TOTAL IN =  2409000000.0031              TOTAL IN =     8640000.0000

          OUT:                                     OUT:
          ----                                     ----
     STORAGE-AQUEOUS =  2409000000.0030       STORAGE-AQUEOUS =     8640000.0000     MST                              
                 WEL =           0.0000                   WEL =           0.0000     SSM_WEL-1                        
                 CHD =       2.1432E-19                   CHD =       3.0170E-21     SSM_CHD-1                        

           TOTAL OUT =  2409000000.0030             TOTAL OUT =     8640000.0000

            IN - OUT =       3.9577E-05              IN - OUT =       8.9407E-08

 PERCENT DISCREPANCY =           0.00     PERCENT DISCREPANCY =           0.00




         TIME SUMMARY AT END OF TIME STEP   11 IN STRESS PERIOD    1
                    SECONDS     MINUTES      HOURS       DAYS        YEARS
                    -----------------------------------------------------------
   TIME STEP LENGTH 2.19000E+06  36500.      608.33      25.347     6.93969E-02
 STRESS PERIOD TIME 2.40900E+07 4.01500E+05  6691.7      278.82     0.76337    
         TOTAL TIME 2.40900E+07 4.01500E+05  6691.7      278.82     0.76337    


end timestep


start timestep kper="1" kstp="12" mode="normal"

 UBDSV1 SAVING  STORAGE-AQUEOUS ON UNIT   1029 AT TIME STEP     12, STRESS PERIOD      1
 UBDSV1 SAVING     FLOW-JA-FACE ON UNIT   1029 AT TIME STEP     12, STRESS PERIOD      1
 UBDSV06 SAVING  SOURCE-SINK MIX IN MODEL GWT_P06-MF6      PACKAGE GWT_P06-MF6     CONNECTED TO MODEL GWT_P06-MF6      PACKAGE SSM              ON UNIT   1029 AT TIME STEP     12, STRESS PERIOD      1
1
  CONCENTRATION IN LAYER   1 AT END OF TIME STEP  12 IN STRESS PERIOD    1
  ---------------------------------------------------------------------------

                1               2               3               4               5               6               7               8               9              10
               11              12              13              14              15              16              17              18              19              20
               21              22              23              24              25              26              27              28              29              30
               31
 ................................................................................................................................................................................................................................................................................................................................................................................................................................................................................................................
   1      0.00000        3.372301E-52    3.801428E-49    2.148337E-46    7.846566E-44    2.039178E-41    3.943493E-39    5.789475E-37    6.466865E-35    5.395285E-33
         3.256622E-31    1.657280E-29    1.286022E-27    3.260177E-26    4.704731E-25   -8.810127E-24    4.704458E-25    3.259621E-26    1.284752E-27    1.646702E-29
         3.195347E-31    5.215162E-33    6.078149E-35    5.322327E-37    3.600840E-39    1.878998E-41    7.389590E-44    2.086516E-46    3.830215E-49    3.538196E-52
          0.00000    
   2     3.372301E-52    3.602743E-49    2.031582E-46    7.542125E-44    2.024775E-41    4.111670E-39    6.452932E-37    7.880852E-35    7.428457E-33    5.215676E-31
         2.525815E-29    9.960827E-28    9.443781E-26    2.182333E-24    3.094735E-23   -7.321081E-22    3.094548E-23    2.181986E-24    9.436549E-26    9.889603E-28
         2.473712E-29    5.023924E-31    6.937343E-33    7.168397E-35    5.799444E-37    3.707628E-39    1.855431E-41    7.090677E-44    1.972867E-46    3.630979E-49
         3.538750E-52
   3     3.801428E-49    2.031582E-46    7.428472E-44    2.013167E-41    4.208804E-39    6.925690E-37    9.042881E-35    9.355315E-33    7.543668E-31    4.475738E-29
         1.638692E-27    3.626926E-26    6.240274E-24    1.367170E-22    2.124222E-21   -4.974171E-20    2.124100E-21    1.366990E-22    6.237180E-24    3.587660E-26
         1.600037E-27    4.295777E-29    7.000340E-31    8.423300E-33    8.010540E-35    6.127589E-37    3.766118E-39    1.839296E-41    6.978713E-44    1.972975E-46
         3.831978E-49
   4     2.148337E-46    7.542125E-44    2.013167E-41    4.239503E-39    7.168828E-37    9.803288E-35    1.084993E-32    9.672001E-31    6.812050E-29    3.505674E-27
         9.304615E-26   -5.519783E-25    3.764094E-22    8.568029E-21    1.583746E-19   -2.349269E-18    1.583685E-19    8.567438E-21    3.763889E-22   -5.647597E-25
         9.078352E-26    3.362454E-27    6.296328E-29    8.633601E-31    9.489681E-33    8.533011E-35    6.287158E-37    3.780495E-39    1.837782E-41    7.086189E-44
         2.086793E-46
   5     7.846566E-44    2.024775E-41    4.208804E-39    7.168828E-37    1.006753E-34    1.166531E-32    1.114687E-30    8.789059E-29    5.673246E-27    2.781536E-25
         6.744505E-24   -1.523424E-22    2.240937E-20    5.710155E-19    1.113802E-17   -3.983656E-17    1.113785E-17    5.710208E-19    2.241329E-20   -1.518356E-22
         6.679430E-24    2.695609E-25    5.274026E-27    7.827190E-29    9.665064E-31    1.002789E-32    8.694149E-35    6.273629E-37    3.755254E-39    1.850785E-41
         7.379546E-44
   6     2.039178E-41    4.111670E-39    6.925690E-37    9.803288E-35    1.166531E-32    1.167287E-30    9.898567E-29    7.265574E-27    4.703633E-25    2.531187E-23
         8.231030E-22   -1.043674E-21    1.424385E-18    3.597638E-17   -1.788872E-16   -2.484456E-15   -1.788840E-16    3.597688E-17    1.424598E-18   -9.804460E-22
         8.251682E-22    2.505645E-23    4.482678E-25    6.566501E-27    8.601640E-29    9.985337E-31    9.990459E-33    8.484147E-35    6.089168E-37    3.686529E-39
         1.870998E-41
   7     3.943493E-39    6.452932E-37    9.042881E-35    1.084993E-32    1.114687E-30    9.898567E-29    7.835439E-27    5.806820E-25    4.080274E-23    2.456482E-21
         9.772847E-20    1.447494E-18    8.535885E-17   -7.935024E-16   -1.046905E-14   -3.565407E-14   -1.046879E-14   -7.934923E-16    8.535924E-17    1.450010E-18
         9.798259E-20    2.459823E-21    4.022927E-23    5.460825E-25    6.982086E-27    8.558356E-29    9.581615E-31    9.392067E-33    7.926338E-35    5.742964E-37
         3.571326E-39
   8     5.789475E-37    7.880852E-35    9.355315E-33    9.672001E-31    8.789059E-29    7.265574E-27    5.806820E-25    4.627020E-23    3.418839E-21    2.009361E-19
         7.487790E-18    1.483040E-16   -1.740876E-15   -3.298715E-14   -1.313043E-13   -1.191515E-12   -1.313023E-13   -3.298674E-14   -1.741689E-15    1.483210E-16
         7.496846E-18    2.015030E-19    3.422062E-21    4.549173E-23    5.444377E-25    6.509356E-27    7.727088E-29    8.510472E-31    8.304165E-33    7.073716E-35
         5.259769E-37
   9     6.466865E-35    7.428457E-33    7.543668E-31    6.812050E-29    5.673246E-27    4.703633E-25    4.080274E-23    3.418839E-21    2.338546E-19    1.077437E-17
         1.902141E-16   -3.258942E-15   -7.963393E-14   -3.889780E-13   -2.654610E-12    1.049107E-10   -2.654793E-12   -3.889427E-13   -7.963365E-14   -3.264859E-15
         1.903457E-16    1.079287E-17    2.346082E-19    3.421968E-21    4.016025E-23    4.449776E-25    5.206289E-27    6.202177E-29    6.896861E-31    6.841685E-33
         6.001976E-35
  10     5.395285E-33    5.215676E-31    4.475738E-29    3.505674E-27    2.781536E-25    2.531187E-23    2.456482E-21    2.009361E-19    1.077437E-17    2.079761E-16
        -4.558256E-15   -1.239202E-13   -9.969249E-13    1.636344E-12    9.806247E-10    2.517188E-08    9.806260E-10    1.634362E-12   -9.963149E-13   -1.239563E-13
        -4.570219E-15    2.082233E-16    1.079418E-17    2.015661E-19    2.460000E-21    2.499372E-23    2.673781E-25    3.324349E-27    4.246702E-29    4.971210E-31
         5.165949E-33
  11     3.256622E-31    2.525815E-29    1.638692E-27    9.304615E-26    6.744505E-24    8.231030E-22    9.772847E-20    7.487790E-18    1.902141E-16   -4.558256E-15
        -1.414003E-13   -1.370727E-12    1.585220E-11    3.830474E-09    2.350549E-07    8.120591E-06    2.350549E-07    3.830490E-09    1.584187E-11   -1.368279E-12
        -1.415089E-13   -4.570856E-15    1.903766E-16    7.498980E-18    9.804767E-20    8.257040E-22    6.657326E-24    8.999923E-26    1.586336E-27    2.455085E-29
         3.173458E-31
  12     1.657280E-29    9.960827E-28    3.626926E-26   -5.519783E-25   -1.523424E-22   -1.043674E-21    1.447494E-18    1.483040E-16   -3.258942E-15   -1.239202E-13
        -1.370727E-12    2.473154E-11    7.275286E-09    7.581232E-07    5.532226E-05    1.884292E-03    5.532226E-05    7.581232E-07    7.275343E-09    2.470927E-11
        -1.367941E-12   -1.239731E-13   -3.266029E-15    1.483331E-16    1.450999E-18   -9.537777E-22   -1.515503E-22   -5.682088E-25    3.573909E-26    9.862935E-28
         1.642616E-29
  13     1.286022E-27    9.443781E-26    6.240274E-24    3.764094E-22    2.240937E-20    1.424385E-18    8.535885E-17   -1.740876E-15   -7.963393E-14   -9.969249E-13
         1.585220E-11    7.275286E-09    1.091424E-06    1.262493E-04    8.497889E-03    0.262311        8.497889E-03    1.262493E-04    1.091424E-06    7.275345E-09
         1.583969E-11   -9.960866E-13   -7.963595E-14   -1.742083E-15    8.535954E-17    1.424724E-18    2.241688E-20    3.764259E-22    6.236695E-24    9.434635E-26
         1.284352E-27
  14     3.260177E-26    2.182333E-24    1.367170E-22    8.568029E-21    5.710155E-19    3.597638E-17   -7.935024E-16   -3.298715E-14   -3.889780E-13    1.636344E-12
         3.830474E-09    7.581232E-07    1.262493E-04    1.277380E-02    0.657871         10.6546        0.657871        1.277380E-02    1.262493E-04    7.581232E-07
         3.830493E-09    1.633903E-12   -3.889305E-13   -3.298691E-14   -7.935045E-16    3.597708E-17    5.710312E-19    8.567608E-21    1.367008E-22    2.182000E-24
         3.259624E-26
  15     4.704731E-25    3.094735E-23    2.124222E-21    1.583746E-19    1.113802E-17   -1.788872E-16   -1.046905E-14   -1.313043E-13   -2.654610E-12    9.806247E-10
         2.350549E-07    5.532226E-05    8.497889E-03    0.657871         14.4021         64.7026         14.4021        0.657871        8.497889E-03    5.532226E-05
         2.350549E-07    9.806264E-10   -2.654833E-12   -1.313021E-13   -1.046875E-14   -1.788837E-16    1.113782E-17    1.583678E-19    2.124088E-21    3.094530E-23
         4.704431E-25
  16    -8.810127E-24   -7.321081E-22   -4.974171E-20   -2.349269E-18   -3.983656E-17   -2.484456E-15   -3.565407E-14   -1.191515E-12    1.049107E-10    2.517188E-08
         8.120591E-06    1.884292E-03    0.262311         10.6546         64.7026         98.0142         64.7026         10.6546        0.262311        1.884292E-03
         8.120591E-06    2.517188E-08    1.049107E-10   -1.191515E-12   -3.565407E-14   -2.484456E-15   -3.983656E-17   -2.349269E-18   -4.974171E-20   -7.321081E-22
        -8.810127E-24
  17     4.704458E-25    3.094548E-23    2.124100E-21    1.583685E-19    1.113785E-17   -1.788840E-16   -1.046879E-14   -1.313023E-13   -2.654793E-12    9.806260E-10
         2.350549E-07    5.532226E-05    8.497889E-03    0.657871         14.4021         64.7026         14.4021        0.657871        8.497889E-03    5.532226E-05
         2.350549E-07    9.806247E-10   -2.654610E-12   -1.313043E-13   -1.046905E-14   -1.788872E-16    1.113802E-17    1.583746E-19    2.124222E-21    3.094735E-23
         4.704730E-25
  18     3.259621E-26    2.181986E-24    1.366990E-22    8.567438E-21    5.710208E-19    3.597688E-17   -7.934923E-16   -3.298674E-14   -3.889427E-13    1.634362E-12
         3.830490E-09    7.581232E-07    1.262493E-04    1.277380E-02    0.657871         10.6546        0.657871        1.277380E-02    1.262493E-04    7.581232E-07
         3.830474E-09    1.636345E-12   -3.889779E-13   -3.298715E-14   -7.935025E-16    3.597638E-17    5.710155E-19    8.568029E-21    1.367170E-22    2.182333E-24
         3.260177E-26
  19     1.284752E-27    9.436549E-26    6.237180E-24    3.763889E-22    2.241329E-20    1.424598E-18    8.535924E-17   -1.741689E-15   -7.963365E-14   -9.963149E-13
         1.584187E-11    7.275343E-09    1.091424E-06    1.262493E-04    8.497889E-03    0.262311        8.497889E-03    1.262493E-04    1.091424E-06    7.275286E-09
         1.585220E-11   -9.969249E-13   -7.963393E-14   -1.740876E-15    8.535885E-17    1.424384E-18    2.240937E-20    3.764094E-22    6.240274E-24    9.443781E-26
         1.286022E-27
  20     1.646702E-29    9.889603E-28    3.587660E-26   -5.647597E-25   -1.518356E-22   -9.804460E-22    1.450010E-18    1.483210E-16   -3.264859E-15   -1.239563E-13
        -1.368279E-12    2.470927E-11    7.275345E-09    7.581232E-07    5.532226E-05    1.884292E-03    5.532226E-05    7.581232E-07    7.275286E-09    2.473154E-11
        -1.370727E-12   -1.239202E-13   -3.258942E-15    1.483040E-16    1.447494E-18   -1.043675E-21   -1.523425E-22   -5.519786E-25    3.626926E-26    9.960827E-28
         1.657280E-29
  21     3.195347E-31    2.473712E-29    1.600037E-27    9.078353E-26    6.679430E-24    8.251682E-22    9.798259E-20    7.496846E-18    1.903457E-16   -4.570219E-15
        -1.415089E-13   -1.367941E-12    1.583969E-11    3.830493E-09    2.350549E-07    8.120591E-06    2.350549E-07    3.830474E-09    1.585220E-11   -1.370727E-12
        -1.414003E-13   -4.558256E-15    1.902141E-16    7.487790E-18    9.772847E-20    8.231030E-22    6.744505E-24    9.304614E-26    1.638692E-27    2.525815E-29
         3.256622E-31
  22     5.215162E-33    5.023924E-31    4.295777E-29    3.362454E-27    2.695609E-25    2.505645E-23    2.459823E-21    2.015030E-19    1.079287E-17    2.082233E-16
        -4.570856E-15   -1.239731E-13   -9.960866E-13    1.633903E-12    9.806264E-10    2.517188E-08    9.806247E-10    1.636345E-12   -9.969249E-13   -1.239202E-13
        -4.558256E-15    2.079761E-16    1.077437E-17    2.009362E-19    2.456482E-21    2.531187E-23    2.781536E-25    3.505674E-27    4.475738E-29    5.215676E-31
         5.395285E-33
  23     6.078149E-35    6.937343E-33    7.000340E-31    6.296328E-29    5.274026E-27    4.482678E-25    4.022927E-23    3.422062E-21    2.346082E-19    1.079418E-17
         1.903766E-16   -3.266029E-15   -7.963595E-14   -3.889305E-13   -2.654833E-12    1.049107E-10   -2.654610E-12   -3.889779E-13   -7.963393E-14   -3.258942E-15
         1.902141E-16    1.077437E-17    2.338546E-19    3.418839E-21    4.080275E-23    4.703633E-25    5.673246E-27    6.812050E-29    7.543668E-31    7.428457E-33
         6.466865E-35
  24     5.322327E-37    7.168397E-35    8.423300E-33    8.633601E-31    7.827190E-29    6.566501E-27    5.460825E-25    4.549173E-23    3.421968E-21    2.015661E-19
         7.498980E-18    1.483331E-16   -1.742083E-15   -3.298691E-14   -1.313021E-13   -1.191515E-12   -1.313043E-13   -3.298715E-14   -1.740876E-15    1.483040E-16
         7.487790E-18    2.009362E-19    3.418839E-21    4.627020E-23    5.806820E-25    7.265574E-27    8.789059E-29    9.672001E-31    9.355315E-33    7.880852E-35
         5.789475E-37
  25     3.600840E-39    5.799444E-37    8.010540E-35    9.489681E-33    9.665065E-31    8.601640E-29    6.982086E-27    5.444377E-25    4.016025E-23    2.460000E-21
         9.804767E-20    1.450999E-18    8.535954E-17   -7.935045E-16   -1.046875E-14   -3.565407E-14   -1.046905E-14   -7.935025E-16    8.535885E-17    1.447494E-18
         9.772847E-20    2.456482E-21    4.080275E-23    5.806820E-25    7.835439E-27    9.898567E-29    1.114687E-30    1.084993E-32    9.042881E-35    6.452932E-37
         3.943493E-39
  26     1.878998E-41    3.707628E-39    6.127589E-37    8.533011E-35    1.002789E-32    9.985337E-31    8.558356E-29    6.509356E-27    4.449776E-25    2.499372E-23
         8.257040E-22   -9.537777E-22    1.424724E-18    3.597708E-17   -1.788837E-16   -2.484456E-15   -1.788872E-16    3.597638E-17    1.424384E-18   -1.043675E-21
         8.231030E-22    2.531187E-23    4.703633E-25    7.265574E-27    9.898567E-29    1.167287E-30    1.166531E-32    9.803288E-35    6.925690E-37    4.111670E-39
         2.039178E-41
  27     7.389590E-44    1.855431E-41    3.766118E-39    6.287158E-37    8.694149E-35    9.990459E-33    9.581615E-31    7.727088E-29    5.206289E-27    2.673781E-25
         6.657326E-24   -1.515503E-22    2.241688E-20    5.710312E-19    1.113782E-17   -3.983656E-17    1.113802E-17    5.710155E-19    2.240937E-20   -1.523425E-22
         6.744505E-24    2.781536E-25    5.673246E-27    8.789059E-29    1.114687E-30    1.166531E-32    1.006753E-34    7.168828E-37    4.208804E-39    2.024775E-41
         7.846566E-44
  28     2.086516E-46    7.090677E-44    1.839296E-41    3.780495E-39    6.273629E-37    8.484147E-35    9.392067E-33    8.510472E-31    6.202177E-29    3.324349E-27
         8.999923E-26   -5.682088E-25    3.764259E-22    8.567608E-21    1.583678E-19   -2.349269E-18    1.583746E-19    8.568029E-21    3.764094E-22   -5.519786E-25
         9.304614E-26    3.505674E-27    6.812050E-29    9.672001E-31    1.084993E-32    9.803288E-35    7.168828E-37    4.239503E-39    2.013167E-41    7.542125E-44
         2.148337E-46
  29     3.830215E-49    1.972867E-46    6.978713E-44    1.837782E-41    3.755254E-39    6.089168E-37    7.926338E-35    8.304165E-33    6.896861E-31    4.246702E-29
         1.586336E-27    3.573909E-26    6.236695E-24    1.367008E-22    2.124088E-21   -4.974171E-20    2.124222E-21    1.367170E-22    6.240274E-24    3.626926E-26
         1.638692E-27    4.475738E-29    7.543668E-31    9.355315E-33    9.042881E-35    6.925690E-37    4.208804E-39    2.013167E-41    7.428472E-44    2.031582E-46
         3.801428E-49
  30     3.538196E-52    3.630979E-49    1.972975E-46    7.086189E-44    1.850785E-41    3.686529E-39    5.742964E-37    7.073716E-35    6.841685E-33    4.971210E-31
         2.455085E-29    9.862935E-28    9.434635E-26    2.182000E-24    3.094530E-23   -7.321081E-22    3.094735E-23    2.182333E-24    9.443781E-26    9.960827E-28
         2.525815E-29    5.215676E-31    7.428457E-33    7.880852E-35    6.452932E-37    4.111670E-39    2.024775E-41    7.542125E-44    2.031582E-46    3.602743E-49
         3.372301E-52
  31      0.00000        3.538750E-52    3.831978E-49    2.086793E-46    7.379546E-44    1.870998E-41    3.571326E-39    5.259769E-37    6.001976E-35    5.165949E-33
         3.173458E-31    1.642616E-29    1.284352E-27    3.259624E-26    4.704431E-25   -8.810127E-24    4.704730E-25    3.260177E-26    1.286022E-27    1.657280E-29
         3.256622E-31    5.395285E-33    6.466865E-35    5.789475E-37    3.943493E-39    2.039178E-41    7.846566E-44    2.148337E-46    3.801428E-49    3.372301E-52
          0.00000    

 CONCENTRATION WILL BE SAVED ON UNIT 1030 AT END OF TIME STEP   12, STRESS PERIOD    1


  MASS BUDGET FOR ENTIRE MODEL AT END OF TIME STEP   12, STRESS PERIOD   1
  ---------------------------------------------------------------------------------------------------

     CUMULATIVE MASS      M       RATES FOR THIS TIME STEP      M/T          PACKAGE NAME    
     ------------------                 ------------------------                     ----------------

           IN:                                      IN:
           ---                                      ---
     STORAGE-AQUEOUS =       3.1337E-03       STORAGE-AQUEOUS =       2.0747E-06     MST                              
                 WEL =  2628000000.0000                   WEL =     8640000.0000     SSM_WEL-1                        
                 CHD =           0.0000                   CHD =           0.0000     SSM_CHD-1                        

            TOTAL IN =  2628000000.0031              TOTAL IN =     8640000.0000

          OUT:                                     OUT:
          ----                                     ----
     STORAGE-AQUEOUS =  2628000000.0031       STORAGE-AQUEOUS =     8640000.0000     MST                              
                 WEL =           0.0000                   WEL =           0.0000     SSM_WEL-1                        
                 CHD =       3.3649E-19                   CHD =       4.8200E-21     SSM_CHD-1                        

           TOTAL OUT =  2628000000.0031             TOTAL OUT =     8640000.0000

            IN - OUT =       4.1485E-05              IN - OUT =       8.9407E-08

 PERCENT DISCREPANCY =           0.00     PERCENT DISCREPANCY =           0.00




         TIME SUMMARY AT END OF TIME STEP   12 IN STRESS PERIOD    1
                    SECONDS     MINUTES      HOURS       DAYS        YEARS
                    -----------------------------------------------------------
   TIME STEP LENGTH 2.19000E+06  36500.      608.33      25.347     6.93969E-02
 STRESS PERIOD TIME 2.62800E+07 4.38000E+05  7300.0      304.17     0.83276    
         TOTAL TIME 2.62800E+07 4.38000E+05  7300.0      304.17     0.83276    


end timestep


start timestep kper="1" kstp="13" mode="normal"

 UBDSV1 SAVING  STORAGE-AQUEOUS ON UNIT   1029 AT TIME STEP     13, STRESS PERIOD      1
 UBDSV1 SAVING     FLOW-JA-FACE ON UNIT   1029 AT TIME STEP     13, STRESS PERIOD      1
 UBDSV06 SAVING  SOURCE-SINK MIX IN MODEL GWT_P06-MF6      PACKAGE GWT_P06-MF6     CONNECTED TO MODEL GWT_P06-MF6      PACKAGE SSM              ON UNIT   1029 AT TIME STEP     13, STRESS PERIOD      1
1
  CONCENTRATION IN LAYER   1 AT END OF TIME STEP  13 IN STRESS PERIOD    1
  ---------------------------------------------------------------------------

                1               2               3               4               5               6               7               8               9              10
               11              12              13              14              15              16              17              18              19              20
               21              22              23              24              25              26              27              28              29              30
               31
 ................................................................................................................................................................................................................................................................................................................................................................................................................................................................................................................
   1      0.00000        8.842469E-52    9.589517E-49    5.204218E-46    1.822132E-43    4.532320E-41    8.376322E-39    1.172603E-36    1.242103E-34    9.679564E-33
         5.281467E-31    2.489296E-29    2.154753E-27    5.316215E-26    7.637392E-25   -1.548955E-23    7.636922E-25    5.315248E-26    2.152825E-27    2.472904E-29
         5.177750E-31    9.343905E-33    1.165525E-34    1.073225E-36    7.573083E-39    4.105062E-41    1.672878E-43    4.885331E-46    9.260157E-49    8.820348E-52
          0.00000    
   2     8.842469E-52    9.088301E-49    4.921365E-46    1.751483E-43    4.501426E-41    8.743325E-39    1.312053E-36    1.531230E-34    1.373750E-32    9.034268E-31
         3.909727E-29    1.380669E-27    1.526308E-25    3.525787E-24    5.178899E-23   -1.119503E-21    5.178576E-23    3.525180E-24    1.525218E-25    1.370027E-27
         3.825570E-29    8.699369E-31    1.284038E-32    1.391977E-34    1.173427E-36    7.797197E-39    4.049703E-41    1.603819E-43    4.616759E-46    8.776173E-49
         8.820987E-52
   3     9.589517E-49    4.921365E-46    1.725115E-43    4.476163E-41    8.955122E-39    1.411193E-36    1.768743E-34    1.762533E-32    1.370542E-30    7.762360E-29
         2.596148E-27    5.046188E-26    9.996814E-24    2.262949E-22    3.639028E-21   -6.512644E-20    3.638824E-21    2.262644E-22    9.992011E-24    4.988293E-26
         2.536225E-27    7.466509E-29    1.277998E-30    1.593617E-32    1.567348E-34    1.241928E-36    7.918034E-39    4.011885E-41    1.577700E-43    4.615642E-46
         9.260369E-49
   4     5.204218E-46    1.751483E-43    4.476163E-41    9.022066E-39    1.462119E-36    1.924030E-34    2.065245E-32    1.805980E-30    1.261997E-28    6.488777E-27
         1.799081E-25    6.474610E-25    6.207399E-22    1.455317E-20    2.555368E-19   -2.536741E-18    2.555276E-19    1.455209E-20    6.206685E-22    6.270187E-25
         1.765270E-25    6.267105E-27    1.179947E-28    1.630721E-30    1.819165E-32    1.676206E-34    1.275025E-36    7.945887E-39    4.007310E-41    1.601756E-43
         4.881643E-46
   5     1.822132E-43    4.501426E-41    8.955122E-39    1.462119E-36    1.977965E-34    2.230601E-32    2.110591E-30    1.684758E-28    1.120505E-26    5.722107E-25
         1.660648E-23    5.653320E-23    3.824629E-20    9.233450E-19    1.555803E-17   -3.184631E-17    1.555779E-17    9.233375E-19    3.824884E-20    5.689005E-23
         1.650665E-23    5.596315E-25    1.061088E-26    1.533288E-28    1.861018E-30    1.934387E-32    1.709896E-34    1.272046E-36    7.891005E-39    4.035816E-41
         1.668464E-43
   6     4.532320E-41    8.743325E-39    1.411193E-36    1.924030E-34    2.230601E-32    2.219666E-30    1.925966E-28    1.479641E-26    9.934009E-25    5.338324E-23
         1.809855E-21    2.367553E-20    2.316311E-18    5.096524E-17   -1.776308E-16   -2.538298E-15   -1.776290E-16    5.096561E-17    2.316480E-18    2.373912E-20
         1.811392E-21    5.300860E-23    9.622590E-25    1.376483E-26    1.722123E-28    1.935508E-30    1.927514E-32    1.666452E-34    1.233504E-36    7.745153E-39
         4.081599E-41
   7     8.376322E-39    1.312053E-36    1.768743E-34    2.065245E-32    2.110591E-30    1.925966E-28    1.611075E-26    1.245652E-24    8.525944E-23    4.639177E-21
         1.651539E-19    3.147871E-18    1.204865E-16   -7.028397E-16   -1.200130E-14   -4.824728E-14   -1.200101E-14   -7.028261E-16    1.204864E-16    3.150494E-18
         1.654194E-19    4.640782E-21    8.443140E-23    1.196901E-24    1.485158E-26    1.715323E-28    1.846861E-30    1.801267E-32    1.550605E-34    1.161124E-36
         7.501086E-39
   8     1.172603E-36    1.531230E-34    1.762533E-32    1.805980E-30    1.684758E-28    1.479641E-26    1.245652E-24    9.702550E-23    6.399703E-21    3.179191E-19
         9.891286E-18    2.094839E-16   -1.507719E-15   -3.838199E-14   -1.840976E-13   -1.533459E-12   -1.840944E-13   -3.838120E-14   -1.508567E-15    2.095048E-16
         9.901596E-18    3.185096E-19    6.399454E-21    9.591000E-23    1.194600E-24    1.368086E-26    1.517488E-28    1.609783E-30    1.571781E-32    1.373201E-34
         1.059664E-36
   9     1.242103E-34    1.373750E-32    1.370542E-30    1.261997E-28    1.120505E-26    9.934009E-25    8.525944E-23    6.399703E-21    3.714832E-19    1.474848E-17
         2.733688E-16   -2.937370E-15   -9.360251E-14   -5.694515E-13   -1.609766E-12    1.620777E-10   -1.609977E-12   -5.694113E-13   -9.359747E-14   -2.943752E-15
         2.735300E-16    1.476899E-17    3.722643E-19    6.399141E-21    8.433455E-23    9.576573E-25    1.051008E-26    1.164893E-28    1.260225E-30    1.266378E-32
         1.150328E-34
  10     9.679564E-33    9.034268E-31    7.762360E-29    6.488777E-27    5.722107E-25    5.338324E-23    4.639177E-21    3.179191E-19    1.474848E-17    2.973920E-16
        -4.230340E-15   -1.462416E-13   -1.340787E-12    1.030605E-11    1.580116E-09    4.258426E-08    1.580117E-09    1.030387E-11   -1.340142E-12   -1.462606E-13
        -4.243484E-15    2.976969E-16    1.477054E-17    3.185771E-19    4.640653E-21    5.291979E-23    5.564603E-25    6.208059E-27    7.385220E-29    8.606092E-31
         9.250468E-33
  11     5.281467E-31    3.909727E-29    2.596148E-27    1.799081E-25    1.660648E-23    1.809855E-21    1.651539E-19    9.891286E-18    2.733688E-16   -4.230340E-15
        -1.670443E-13   -1.821454E-12    3.938230E-11    6.327812E-09    3.970923E-07    1.300143E-05    3.970923E-07    6.327832E-09    3.937094E-11   -1.818853E-12
        -1.671298E-13   -4.244197E-15    2.735680E-16    9.904107E-18    1.654911E-19    1.811861E-21    1.647469E-23    1.753710E-25    2.514995E-27    3.795264E-29
         5.140262E-31
  12     2.489296E-29    1.380669E-27    5.046188E-26    6.474610E-25    5.653320E-23    2.367553E-20    3.147871E-18    2.094839E-16   -2.937370E-15   -1.462416E-13
        -1.821454E-12    5.683695E-11    1.218222E-08    1.278018E-06    8.835953E-05    2.850650E-03    8.835953E-05    1.278018E-06    1.218228E-08    5.681232E-11
        -1.818489E-12   -1.462756E-13   -2.945034E-15    2.095197E-16    3.151614E-18    2.376883E-20    5.719221E-23    6.218221E-25    4.968719E-26    1.366117E-27
         2.466637E-29
  13     2.154753E-27    1.526308E-25    9.996814E-24    6.207399E-22    3.824629E-20    2.316311E-18    1.204865E-16   -1.507719E-15   -9.360251E-14   -1.340787E-12
         3.938230E-11    1.218222E-08    1.837985E-06    2.010514E-04    1.277058E-02    0.365420        1.277058E-02    2.010514E-04    1.837985E-06    1.218229E-08
         3.936849E-11   -1.339898E-12   -9.359839E-14   -1.508988E-15    1.204867E-16    2.316606E-18    3.825271E-20    6.207067E-22    9.991260E-24    1.524944E-25
         2.152246E-27
  14     5.316215E-26    3.525787E-24    2.262949E-22    1.455317E-20    9.233450E-19    5.096524E-17   -7.028397E-16   -3.838199E-14   -5.694515E-13    1.030605E-11
         6.327812E-09    1.278018E-06    2.010514E-04    1.909760E-02    0.901558         12.8542        0.901558        1.909760E-02    2.010514E-04    1.278018E-06
         6.327835E-09    1.030336E-11   -5.693971E-13   -3.838130E-14   -7.028393E-16    5.096576E-17    9.233463E-19    1.455223E-20    2.262654E-22    3.525178E-24
         5.315231E-26
  15     7.637392E-25    5.178899E-23    3.639028E-21    2.555368E-19    1.555803E-17   -1.776308E-16   -1.200130E-14   -1.840976E-13   -1.609766E-12    1.580116E-09
         3.970923E-07    8.835953E-05    1.277058E-02    0.901558         17.2128         68.6035         17.2128        0.901558        1.277058E-02    8.835953E-05
         3.970923E-07    1.580118E-09   -1.610023E-12   -1.840940E-13   -1.200097E-14   -1.776291E-16    1.555775E-17    2.555265E-19    3.638803E-21    5.178544E-23
         7.636876E-25
  16    -1.548955E-23   -1.119503E-21   -6.512644E-20   -2.536741E-18   -3.184631E-17   -2.538298E-15   -4.824728E-14   -1.533459E-12    1.620777E-10    4.258426E-08
         1.300143E-05    2.850650E-03    0.365420         12.8542         68.6035         98.5675         68.6035         12.8542        0.365420        2.850650E-03
         1.300143E-05    4.258426E-08    1.620777E-10   -1.533459E-12   -4.824728E-14   -2.538298E-15   -3.184631E-17   -2.536741E-18   -6.512645E-20   -1.119503E-21
        -1.548955E-23
  17     7.636922E-25    5.178576E-23    3.638824E-21    2.555276E-19    1.555779E-17   -1.776290E-16   -1.200101E-14   -1.840944E-13   -1.609977E-12    1.580117E-09
         3.970923E-07    8.835953E-05    1.277058E-02    0.901558         17.2128         68.6035         17.2128        0.901558        1.277058E-02    8.835953E-05
         3.970923E-07    1.580116E-09   -1.609765E-12   -1.840975E-13   -1.200130E-14   -1.776308E-16    1.555803E-17    2.555367E-19    3.639028E-21    5.178898E-23
         7.637392E-25
  18     5.315248E-26    3.525180E-24    2.262644E-22    1.455209E-20    9.233375E-19    5.096561E-17   -7.028261E-16   -3.838120E-14   -5.694113E-13    1.030387E-11
         6.327832E-09    1.278018E-06    2.010514E-04    1.909760E-02    0.901558         12.8542        0.901558        1.909760E-02    2.010514E-04    1.278018E-06
         6.327812E-09    1.030605E-11   -5.694514E-13   -3.838199E-14   -7.028398E-16    5.096524E-17    9.233449E-19    1.455317E-20    2.262949E-22    3.525786E-24
         5.316215E-26
  19     2.152825E-27    1.525218E-25    9.992011E-24    6.206685E-22    3.824884E-20    2.316480E-18    1.204864E-16   -1.508567E-15   -9.359747E-14   -1.340142E-12
         3.937094E-11    1.218228E-08    1.837985E-06    2.010514E-04    1.277058E-02    0.365420        1.277058E-02    2.010514E-04    1.837985E-06    1.218222E-08
         3.938230E-11   -1.340787E-12   -9.360251E-14   -1.507719E-15    1.204865E-16    2.316311E-18    3.824629E-20    6.207398E-22    9.996814E-24    1.526308E-25
         2.154753E-27
  20     2.472904E-29    1.370027E-27    4.988293E-26    6.270187E-25    5.689005E-23    2.373912E-20    3.150494E-18    2.095048E-16   -2.943752E-15   -1.462606E-13
        -1.818853E-12    5.681232E-11    1.218229E-08    1.278018E-06    8.835953E-05    2.850650E-03    8.835953E-05    1.278018E-06    1.218222E-08    5.683695E-11
        -1.821454E-12   -1.462416E-13   -2.937370E-15    2.094839E-16    3.147871E-18    2.367553E-20    5.653317E-23    6.474604E-25    5.046187E-26    1.380669E-27
         2.489296E-29
  21     5.177750E-31    3.825570E-29    2.536225E-27    1.765270E-25    1.650665E-23    1.811392E-21    1.654194E-19    9.901596E-18    2.735300E-16   -4.243484E-15
        -1.671298E-13   -1.818489E-12    3.936849E-11    6.327835E-09    3.970923E-07    1.300143E-05    3.970923E-07    6.327812E-09    3.938230E-11   -1.821454E-12
        -1.670443E-13   -4.230339E-15    2.733688E-16    9.891286E-18    1.651539E-19    1.809855E-21    1.660648E-23    1.799081E-25    2.596148E-27    3.909727E-29
         5.281467E-31
  22     9.343905E-33    8.699369E-31    7.466509E-29    6.267105E-27    5.596315E-25    5.300860E-23    4.640782E-21    3.185096E-19    1.476899E-17    2.976969E-16
        -4.244197E-15   -1.462756E-13   -1.339898E-12    1.030336E-11    1.580118E-09    4.258426E-08    1.580116E-09    1.030605E-11   -1.340787E-12   -1.462416E-13
        -4.230339E-15    2.973920E-16    1.474848E-17    3.179191E-19    4.639177E-21    5.338324E-23    5.722107E-25    6.488777E-27    7.762360E-29    9.034268E-31
         9.679564E-33
  23     1.165525E-34    1.284038E-32    1.277998E-30    1.179947E-28    1.061088E-26    9.622590E-25    8.443140E-23    6.399454E-21    3.722643E-19    1.477054E-17
         2.735680E-16   -2.945034E-15   -9.359839E-14   -5.693971E-13   -1.610023E-12    1.620777E-10   -1.609765E-12   -5.694514E-13   -9.360251E-14   -2.937370E-15
         2.733688E-16    1.474848E-17    3.714832E-19    6.399703E-21    8.525944E-23    9.934009E-25    1.120505E-26    1.261997E-28    1.370542E-30    1.373750E-32
         1.242103E-34
  24     1.073225E-36    1.391977E-34    1.593617E-32    1.630721E-30    1.533288E-28    1.376483E-26    1.196901E-24    9.591000E-23    6.399141E-21    3.185771E-19
         9.904107E-18    2.095197E-16   -1.508988E-15   -3.838130E-14   -1.840940E-13   -1.533459E-12   -1.840975E-13   -3.838199E-14   -1.507719E-15    2.094839E-16
         9.891286E-18    3.179191E-19    6.399703E-21    9.702550E-23    1.245652E-24    1.479641E-26    1.684758E-28    1.805980E-30    1.762533E-32    1.531230E-34
         1.172603E-36
  25     7.573083E-39    1.173427E-36    1.567348E-34    1.819165E-32    1.861018E-30    1.722123E-28    1.485158E-26    1.194600E-24    8.433455E-23    4.640653E-21
         1.654911E-19    3.151614E-18    1.204867E-16   -7.028393E-16   -1.200097E-14   -4.824728E-14   -1.200130E-14   -7.028398E-16    1.204865E-16    3.147871E-18
         1.651539E-19    4.639177E-21    8.525944E-23    1.245652E-24    1.611075E-26    1.925966E-28    2.110591E-30    2.065245E-32    1.768743E-34    1.312053E-36
         8.376322E-39
  26     4.105062E-41    7.797197E-39    1.241928E-36    1.676206E-34    1.934387E-32    1.935508E-30    1.715323E-28    1.368086E-26    9.576573E-25    5.291979E-23
         1.811861E-21    2.376883E-20    2.316606E-18    5.096576E-17   -1.776291E-16   -2.538298E-15   -1.776308E-16    5.096524E-17    2.316311E-18    2.367553E-20
         1.809855E-21    5.338324E-23    9.934009E-25    1.479641E-26    1.925966E-28    2.219666E-30    2.230601E-32    1.924030E-34    1.411193E-36    8.743325E-39
         4.532320E-41
  27     1.672878E-43    4.049703E-41    7.918034E-39    1.275025E-36    1.709896E-34    1.927514E-32    1.846861E-30    1.517488E-28    1.051008E-26    5.564603E-25
         1.647469E-23    5.719221E-23    3.825271E-20    9.233463E-19    1.555775E-17   -3.184631E-17    1.555803E-17    9.233449E-19    3.824629E-20    5.653317E-23
         1.660648E-23    5.722107E-25    1.120505E-26    1.684758E-28    2.110591E-30    2.230601E-32    1.977965E-34    1.462119E-36    8.955122E-39    4.501426E-41
         1.822132E-43
  28     4.885331E-46    1.603819E-43    4.011885E-41    7.945887E-39    1.272046E-36    1.666452E-34    1.801267E-32    1.609783E-30    1.164893E-28    6.208059E-27
         1.753710E-25    6.218221E-25    6.207067E-22    1.455223E-20    2.555265E-19   -2.536741E-18    2.555367E-19    1.455317E-20    6.207398E-22    6.474604E-25
         1.799081E-25    6.488777E-27    1.261997E-28    1.805980E-30    2.065245E-32    1.924030E-34    1.462119E-36    9.022066E-39    4.476163E-41    1.751483E-43
         5.204218E-46
  29     9.260157E-49    4.616759E-46    1.577700E-43    4.007310E-41    7.891005E-39    1.233504E-36    1.550605E-34    1.571781E-32    1.260225E-30    7.385220E-29
         2.514996E-27    4.968719E-26    9.991260E-24    2.262654E-22    3.638803E-21   -6.512645E-20    3.639028E-21    2.262949E-22    9.996814E-24    5.046187E-26
         2.596148E-27    7.762360E-29    1.370542E-30    1.762533E-32    1.768743E-34    1.411193E-36    8.955122E-39    4.476163E-41    1.725115E-43    4.921365E-46
         9.589517E-49
  30     8.820348E-52    8.776173E-49    4.615642E-46    1.601756E-43    4.035816E-41    7.745153E-39    1.161124E-36    1.373201E-34    1.266378E-32    8.606092E-31
         3.795264E-29    1.366117E-27    1.524944E-25    3.525178E-24    5.178544E-23   -1.119503E-21    5.178898E-23    3.525786E-24    1.526308E-25    1.380669E-27
         3.909727E-29    9.034268E-31    1.373750E-32    1.531230E-34    1.312053E-36    8.743325E-39    4.501426E-41    1.751483E-43    4.921365E-46    9.088301E-49
         8.842468E-52
  31      0.00000        8.820987E-52    9.260369E-49    4.881643E-46    1.668464E-43    4.081599E-41    7.501086E-39    1.059664E-36    1.150328E-34    9.250468E-33
         5.140262E-31    2.466637E-29    2.152246E-27    5.315231E-26    7.636876E-25   -1.548955E-23    7.637392E-25    5.316215E-26    2.154753E-27    2.489296E-29
         5.281467E-31    9.679564E-33    1.242103E-34    1.172603E-36    8.376322E-39    4.532320E-41    1.822132E-43    5.204218E-46    9.589517E-49    8.842468E-52
          0.00000    

 CONCENTRATION WILL BE SAVED ON UNIT 1030 AT END OF TIME STEP   13, STRESS PERIOD    1


  MASS BUDGET FOR ENTIRE MODEL AT END OF TIME STEP   13, STRESS PERIOD   1
  ---------------------------------------------------------------------------------------------------

     CUMULATIVE MASS      M       RATES FOR THIS TIME STEP      M/T          PACKAGE NAME    
     ------------------                 ------------------------                     ----------------

           IN:                                      IN:
           ---                                      ---
     STORAGE-AQUEOUS =       3.1909E-03       STORAGE-AQUEOUS =       2.2567E-06     MST                              
                 WEL =  2847000000.0000                   WEL =     8640000.0000     SSM_WEL-1                        
                 CHD =           0.0000                   CHD =           0.0000     SSM_CHD-1                        

            TOTAL IN =  2847000000.0032              TOTAL IN =     8640000.0000

          OUT:                                     OUT:
          ----                                     ----
     STORAGE-AQUEOUS =  2847000000.0031       STORAGE-AQUEOUS =     8640000.0000     MST                              
                 WEL =           0.0000                   WEL =           0.0000     SSM_WEL-1                        
                 CHD =       5.3489E-19                   CHD =       7.8273E-21     SSM_CHD-1                        

           TOTAL OUT =  2847000000.0031             TOTAL OUT =     8640000.0000

            IN - OUT =       4.2915E-05              IN - OUT =       5.9605E-08

 PERCENT DISCREPANCY =           0.00     PERCENT DISCREPANCY =           0.00




         TIME SUMMARY AT END OF TIME STEP   13 IN STRESS PERIOD    1
                    SECONDS     MINUTES      HOURS       DAYS        YEARS
                    -----------------------------------------------------------
   TIME STEP LENGTH 2.19000E+06  36500.      608.33      25.347     6.93969E-02
 STRESS PERIOD TIME 2.84700E+07 4.74500E+05  7908.3      329.51     0.90216    
         TOTAL TIME 2.84700E+07 4.74500E+05  7908.3      329.51     0.90216    


end timestep


start timestep kper="1" kstp="14" mode="normal"

 UBDSV1 SAVING  STORAGE-AQUEOUS ON UNIT   1029 AT TIME STEP     14, STRESS PERIOD      1
 UBDSV1 SAVING     FLOW-JA-FACE ON UNIT   1029 AT TIME STEP     14, STRESS PERIOD      1
 UBDSV06 SAVING  SOURCE-SINK MIX IN MODEL GWT_P06-MF6      PACKAGE GWT_P06-MF6     CONNECTED TO MODEL GWT_P06-MF6      PACKAGE SSM              ON UNIT   1029 AT TIME STEP     14, STRESS PERIOD      1
1
  CONCENTRATION IN LAYER   1 AT END OF TIME STEP  14 IN STRESS PERIOD    1
  ---------------------------------------------------------------------------

                1               2               3               4               5               6               7               8               9              10
               11              12              13              14              15              16              17              18              19              20
               21              22              23              24              25              26              27              28              29              30
               31
 ................................................................................................................................................................................................................................................................................................................................................................................................................................................................................................................
   1      0.00000        2.190257E-51    2.289591E-48    1.196473E-45    4.030952E-43    9.644978E-41    1.714551E-38    2.306674E-36    2.337573E-34    1.717483E-32
         8.545026E-31    3.760131E-29    3.558907E-27    8.658328E-26    1.249592E-24   -2.504617E-23    1.249513E-24    8.656733E-26    3.556055E-27    3.735318E-29
         8.375316E-31    1.658015E-32    2.195489E-34    2.110343E-36    1.543489E-38    8.649556E-41    3.640511E-43    1.097322E-45    2.145202E-48    2.105449E-51
          0.00000    
   2     2.190257E-51    2.169924E-48    1.131479E-45    3.875352E-43    9.585997E-41    1.793749E-38    2.597640E-36    2.929672E-34    2.534773E-32    1.588061E-30
         6.327982E-29    2.080863E-27    2.467264E-25    5.730578E-24    8.571813E-23   -1.602632E-21    8.571289E-23    5.729612E-24    2.465692E-25    2.065323E-27
         6.196469E-29    1.532125E-30    2.378844E-32    2.673212E-34    2.324419E-36    1.592389E-38    8.533452E-41    3.488800E-43    1.036634E-45    2.032693E-48
         2.105476E-51
   3     2.289591E-48    1.131479E-45    3.817247E-43    9.535381E-41    1.839434E-38    2.804134E-36    3.417002E-34    3.328710E-32    2.537387E-30    1.403874E-28
         4.585345E-27    9.602358E-26    1.616033E-23    3.712199E-22    5.902572E-21   -8.149200E-20    5.902262E-21    3.711740E-22    1.615343E-23    9.519535E-26
         4.495686E-27    1.357207E-28    2.386321E-30    3.037440E-32    3.046875E-34    2.470636E-36    1.618652E-38    8.452935E-41    3.431003E-43    1.036159E-45
         2.144545E-48
   4     1.196473E-45    3.875352E-43    9.535381E-41    1.853890E-38    2.910131E-36    3.735856E-34    3.951131E-32    3.440030E-30    2.408923E-28    1.247890E-26
         3.746721E-25    5.188084E-24    1.018155E-21    2.354976E-20    3.806646E-19   -2.714621E-18    3.806523E-19    2.354819E-20    1.018015E-21    5.157572E-24
         3.697976E-25    1.214829E-26    2.282987E-28    3.156491E-30    3.527744E-32    3.280518E-34    2.541389E-36    1.624674E-38    8.441596E-41    3.482736E-43
         1.095784E-45
   5     4.030952E-43    9.585997E-41    1.839434E-38    2.910131E-36    3.846632E-34    4.292261E-32    4.078740E-30    3.303840E-28    2.224845E-26    1.143511E-24
         3.608305E-23    5.511956E-22    6.224589E-20    1.390740E-18    2.003751E-17   -3.063893E-17    2.003726E-17    1.390721E-18    6.224599E-20    5.513162E-22
         3.593520E-23    1.125602E-24    2.138783E-26    3.073501E-28    3.675926E-30    3.782791E-32    3.353972E-34    2.535376E-36    1.612690E-38    8.499198E-41
         3.627686E-43
   6     9.644978E-41    1.793749E-38    2.804134E-36    3.735856E-34    4.292261E-32    4.308697E-30    3.822048E-28    2.986869E-26    1.982378E-24    1.021243E-22
         3.419835E-21    6.520157E-20    3.518320E-18    6.794525E-17   -1.387066E-16   -2.625396E-15   -1.387043E-16    6.794545E-17    3.518443E-18    6.526291E-20
         3.420419E-21    1.015843E-22    1.939135E-24    2.838541E-26    3.512673E-28    3.850226E-30    3.770852E-32    3.262320E-34    2.453672E-36    1.580961E-38
         8.592171E-41
   7     1.714551E-38    2.597640E-36    3.417002E-34    3.951131E-32    4.078740E-30    3.822048E-28    3.270087E-26    2.497704E-24    1.606795E-22    7.928151E-21
         2.587432E-19    5.458927E-18    1.631566E-16   -5.260332E-16   -1.414237E-14   -6.247142E-14   -1.414205E-14   -5.260082E-16    1.631569E-16    5.461620E-18
         2.590110E-19    7.926633E-21    1.595001E-22    2.430170E-24    3.089148E-26    3.502375E-28    3.652987E-30    3.496676E-32    3.015700E-34    2.299740E-36
         1.527777E-38
   8     2.306674E-36    2.929672E-34    3.328710E-32    3.440030E-30    3.303840E-28    2.986869E-26    2.497704E-24    1.828793E-22    1.084638E-20    4.747333E-19
         1.322789E-17    2.868554E-16   -1.100057E-15   -4.581968E-14   -2.517749E-13   -1.739335E-12   -2.517708E-13   -4.581840E-14   -1.100884E-15    2.868842E-16
         1.323926E-17    4.753166E-19    1.084014E-20    1.812999E-22    2.427013E-24    2.826535E-26    3.049477E-28    3.122467E-30    2.999498E-32    2.638279E-34
         2.083208E-36
   9     2.337573E-34    2.534773E-32    2.537387E-30    2.408923E-28    2.224845E-26    1.982378E-24    1.606795E-22    1.084638E-20    5.564564E-19    1.988628E-17
         3.809207E-16   -2.304312E-15   -1.118051E-13   -7.777186E-13    9.797372E-13    2.491354E-10    9.795016E-13   -7.776761E-13   -1.117944E-13   -2.310921E-15
         3.811226E-16    1.990814E-17    5.572179E-19    1.083949E-20    1.593665E-22    1.932812E-24    2.124222E-26    2.259838E-28    2.357162E-30    2.347926E-32
         2.167041E-34
  10     1.717483E-32    1.588061E-30    1.403874E-28    1.247890E-26    1.143511E-24    1.021243E-22    7.928151E-21    4.747333E-19    1.988628E-17    4.145131E-16
        -3.481672E-15   -1.748190E-13   -1.715640E-12    2.617296E-11    2.540474E-09    6.983641E-08    2.540476E-09    2.617063E-11   -1.714979E-12   -1.748170E-13
        -3.495628E-15    4.148934E-16    1.990990E-17    4.753863E-19    7.926018E-21    1.014610E-22    1.121139E-24    1.206053E-26    1.344362E-28    1.516448E-30
         1.641283E-32
  11     8.545026E-31    6.327982E-29    4.585345E-27    3.746721E-25    3.608305E-23    3.419835E-21    2.587432E-19    1.322789E-17    3.809207E-16   -3.481672E-15
        -1.997707E-13   -2.292957E-12    8.056404E-11    1.036982E-08    6.501975E-07    2.024658E-05    6.501975E-07    1.036984E-08    8.055193E-11   -2.290266E-12
        -1.998254E-13   -3.496408E-15    3.811694E-16    1.324214E-17    2.590884E-19    3.420752E-21    3.589041E-23    3.681617E-25    4.464149E-27    6.149115E-29
         8.313689E-31
  12     3.760131E-29    2.080863E-27    9.602358E-26    5.188084E-24    5.511956E-22    6.520157E-20    5.458927E-18    2.868554E-16   -2.304312E-15   -1.748190E-13
        -2.292957E-12    1.125820E-10    2.014748E-08    2.088852E-06    1.373050E-04    4.204231E-03    1.373050E-04    2.088852E-06    2.014756E-08    1.125556E-10
        -2.289884E-12   -1.748291E-13   -2.312276E-15    2.869031E-16    5.462874E-18    6.529564E-20    5.516318E-22    5.150345E-24    9.492749E-26    2.059768E-27
         3.725997E-29
  13     3.558907E-27    2.467264E-25    1.616033E-23    1.018155E-21    6.224589E-20    3.518320E-18    1.631566E-16   -1.100057E-15   -1.118051E-13   -1.715640E-12
         8.056404E-11    2.014748E-08    3.001282E-06    3.115074E-04    1.871043E-02    0.496551        1.871043E-02    3.115074E-04    3.001282E-06    2.014756E-08
         8.054927E-11   -1.714724E-12   -1.117937E-13   -1.101309E-15    1.631576E-16    3.518573E-18    6.224989E-20    1.018054E-21    1.615242E-23    2.465322E-25
         3.555248E-27
  14     8.658328E-26    5.730578E-24    3.712199E-22    2.354976E-20    1.390740E-18    6.794525E-17   -5.260332E-16   -4.581968E-14   -7.777186E-13    2.617296E-11
         1.036982E-08    2.088852E-06    3.115074E-04    2.783721E-02     1.20562         15.2058         1.20562        2.783721E-02    3.115074E-04    2.088852E-06
         1.036984E-08    2.617008E-11   -7.776607E-13   -4.581841E-14   -5.260191E-16    6.794558E-17    1.390728E-18    2.354832E-20    3.711743E-22    5.729586E-24
         8.656680E-26
  15     1.249592E-24    8.571813E-23    5.902572E-21    3.806646E-19    2.003751E-17   -1.387066E-16   -1.414237E-14   -2.517749E-13    9.797372E-13    2.540474E-09
         6.501975E-07    1.373050E-04    1.871043E-02     1.20562         20.1815         72.0781         20.1815         1.20562        1.871043E-02    1.373050E-04
         6.501975E-07    2.540476E-09    9.794507E-13   -2.517702E-13   -1.414200E-14   -1.387043E-16    2.003722E-17    3.806508E-19    5.902229E-21    8.571236E-23
         1.249505E-24
  16    -2.504617E-23   -1.602632E-21   -8.149200E-20   -2.714621E-18   -3.063893E-17   -2.625396E-15   -6.247142E-14   -1.739335E-12    2.491354E-10    6.983641E-08
         2.024658E-05    4.204231E-03    0.496551         15.2058         72.0781         98.9667         72.0781         15.2058        0.496551        4.204231E-03
         2.024658E-05    6.983641E-08    2.491354E-10   -1.739335E-12   -6.247141E-14   -2.625396E-15   -3.063893E-17   -2.714621E-18   -8.149200E-20   -1.602632E-21
        -2.504617E-23
  17     1.249513E-24    8.571289E-23    5.902262E-21    3.806523E-19    2.003726E-17   -1.387043E-16   -1.414205E-14   -2.517708E-13    9.795016E-13    2.540476E-09
         6.501975E-07    1.373050E-04    1.871043E-02     1.20562         20.1815         72.0781         20.1815         1.20562        1.871043E-02    1.373050E-04
         6.501975E-07    2.540474E-09    9.797376E-13   -2.517748E-13   -1.414237E-14   -1.387066E-16    2.003751E-17    3.806646E-19    5.902572E-21    8.571812E-23
         1.249592E-24
  18     8.656733E-26    5.729612E-24    3.711740E-22    2.354819E-20    1.390721E-18    6.794545E-17   -5.260082E-16   -4.581840E-14   -7.776761E-13    2.617063E-11
         1.036984E-08    2.088852E-06    3.115074E-04    2.783721E-02     1.20562         15.2058         1.20562        2.783721E-02    3.115074E-04    2.088852E-06
         1.036982E-08    2.617296E-11   -7.777186E-13   -4.581968E-14   -5.260333E-16    6.794525E-17    1.390740E-18    2.354976E-20    3.712198E-22    5.730577E-24
         8.658328E-26
  19     3.556055E-27    2.465692E-25    1.615343E-23    1.018015E-21    6.224599E-20    3.518443E-18    1.631569E-16   -1.100884E-15   -1.117944E-13   -1.714979E-12
         8.055193E-11    2.014756E-08    3.001282E-06    3.115074E-04    1.871043E-02    0.496551        1.871043E-02    3.115074E-04    3.001282E-06    2.014748E-08
         8.056404E-11   -1.715640E-12   -1.118051E-13   -1.100057E-15    1.631566E-16    3.518320E-18    6.224589E-20    1.018155E-21    1.616033E-23    2.467264E-25
         3.558907E-27
  20     3.735318E-29    2.065323E-27    9.519535E-26    5.157572E-24    5.513162E-22    6.526291E-20    5.461620E-18    2.868842E-16   -2.310921E-15   -1.748170E-13
        -2.290266E-12    1.125556E-10    2.014756E-08    2.088852E-06    1.373050E-04    4.204231E-03    1.373050E-04    2.088852E-06    2.014748E-08    1.125820E-10
        -2.292957E-12   -1.748190E-13   -2.304312E-15    2.868554E-16    5.458927E-18    6.520156E-20    5.511956E-22    5.188083E-24    9.602357E-26    2.080863E-27
         3.760131E-29
  21     8.375316E-31    6.196469E-29    4.495686E-27    3.697976E-25    3.593520E-23    3.420419E-21    2.590110E-19    1.323926E-17    3.811226E-16   -3.495628E-15
        -1.998254E-13   -2.289884E-12    8.054927E-11    1.036984E-08    6.501975E-07    2.024658E-05    6.501975E-07    1.036982E-08    8.056404E-11   -2.292957E-12
        -1.997707E-13   -3.481672E-15    3.809207E-16    1.322789E-17    2.587432E-19    3.419835E-21    3.608305E-23    3.746721E-25    4.585345E-27    6.327982E-29
         8.545026E-31
  22     1.658015E-32    1.532125E-30    1.357207E-28    1.214829E-26    1.125602E-24    1.015843E-22    7.926633E-21    4.753166E-19    1.990814E-17    4.148934E-16
        -3.496408E-15   -1.748291E-13   -1.714724E-12    2.617008E-11    2.540476E-09    6.983641E-08    2.540474E-09    2.617296E-11   -1.715640E-12   -1.748190E-13
        -3.481672E-15    4.145131E-16    1.988628E-17    4.747334E-19    7.928151E-21    1.021243E-22    1.143511E-24    1.247890E-26    1.403874E-28    1.588061E-30
         1.717483E-32
  23     2.195489E-34    2.378844E-32    2.386321E-30    2.282987E-28    2.138783E-26    1.939135E-24    1.595001E-22    1.084014E-20    5.572179E-19    1.990990E-17
         3.811694E-16   -2.312276E-15   -1.117937E-13   -7.776607E-13    9.794507E-13    2.491354E-10    9.797376E-13   -7.777186E-13   -1.118051E-13   -2.304312E-15
         3.809207E-16    1.988628E-17    5.564564E-19    1.084638E-20    1.606795E-22    1.982378E-24    2.224845E-26    2.408923E-28    2.537387E-30    2.534773E-32
         2.337573E-34
  24     2.110343E-36    2.673212E-34    3.037440E-32    3.156491E-30    3.073501E-28    2.838541E-26    2.430170E-24    1.812999E-22    1.083949E-20    4.753863E-19
         1.324214E-17    2.869031E-16   -1.101309E-15   -4.581841E-14   -2.517702E-13   -1.739335E-12   -2.517748E-13   -4.581968E-14   -1.100057E-15    2.868554E-16
         1.322789E-17    4.747334E-19    1.084638E-20    1.828793E-22    2.497704E-24    2.986869E-26    3.303840E-28    3.440030E-30    3.328710E-32    2.929672E-34
         2.306674E-36
  25     1.543489E-38    2.324419E-36    3.046875E-34    3.527744E-32    3.675926E-30    3.512673E-28    3.089148E-26    2.427013E-24    1.593665E-22    7.926018E-21
         2.590884E-19    5.462874E-18    1.631576E-16   -5.260191E-16   -1.414200E-14   -6.247141E-14   -1.414237E-14   -5.260333E-16    1.631566E-16    5.458927E-18
         2.587432E-19    7.928151E-21    1.606795E-22    2.497704E-24    3.270087E-26    3.822048E-28    4.078740E-30    3.951131E-32    3.417002E-34    2.597640E-36
         1.714551E-38
  26     8.649556E-41    1.592389E-38    2.470636E-36    3.280518E-34    3.782791E-32    3.850226E-30    3.502375E-28    2.826535E-26    1.932812E-24    1.014610E-22
         3.420752E-21    6.529564E-20    3.518573E-18    6.794558E-17   -1.387043E-16   -2.625396E-15   -1.387066E-16    6.794525E-17    3.518320E-18    6.520156E-20
         3.419835E-21    1.021243E-22    1.982378E-24    2.986869E-26    3.822048E-28    4.308697E-30    4.292261E-32    3.735856E-34    2.804134E-36    1.793749E-38
         9.644978E-41
  27     3.640511E-43    8.533452E-41    1.618652E-38    2.541389E-36    3.353972E-34    3.770852E-32    3.652987E-30    3.049477E-28    2.124222E-26    1.121139E-24
         3.589041E-23    5.516318E-22    6.224989E-20    1.390728E-18    2.003722E-17   -3.063893E-17    2.003751E-17    1.390740E-18    6.224589E-20    5.511956E-22
         3.608305E-23    1.143511E-24    2.224845E-26    3.303840E-28    4.078740E-30    4.292261E-32    3.846632E-34    2.910131E-36    1.839434E-38    9.585997E-41
         4.030952E-43
  28     1.097322E-45    3.488800E-43    8.452935E-41    1.624674E-38    2.535376E-36    3.262320E-34    3.496676E-32    3.122467E-30    2.259838E-28    1.206053E-26
         3.681617E-25    5.150345E-24    1.018054E-21    2.354832E-20    3.806508E-19   -2.714621E-18    3.806646E-19    2.354976E-20    1.018155E-21    5.188083E-24
         3.746721E-25    1.247890E-26    2.408923E-28    3.440030E-30    3.951131E-32    3.735856E-34    2.910131E-36    1.853890E-38    9.535381E-41    3.875352E-43
         1.196473E-45
  29     2.145202E-48    1.036634E-45    3.431003E-43    8.441596E-41    1.612690E-38    2.453672E-36    3.015700E-34    2.999498E-32    2.357162E-30    1.344362E-28
         4.464149E-27    9.492749E-26    1.615242E-23    3.711743E-22    5.902229E-21   -8.149200E-20    5.902572E-21    3.712198E-22    1.616033E-23    9.602357E-26
         4.585345E-27    1.403874E-28    2.537387E-30    3.328710E-32    3.417002E-34    2.804134E-36    1.839434E-38    9.535381E-41    3.817247E-43    1.131479E-45
         2.289591E-48
  30     2.105449E-51    2.032693E-48    1.036159E-45    3.482736E-43    8.499198E-41    1.580961E-38    2.299740E-36    2.638279E-34    2.347926E-32    1.516448E-30
         6.149115E-29    2.059768E-27    2.465322E-25    5.729586E-24    8.571236E-23   -1.602632E-21    8.571812E-23    5.730577E-24    2.467264E-25    2.080863E-27
         6.327982E-29    1.588061E-30    2.534773E-32    2.929672E-34    2.597640E-36    1.793749E-38    9.585997E-41    3.875352E-43    1.131479E-45    2.169924E-48
         2.190257E-51
  31      0.00000        2.105476E-51    2.144545E-48    1.095784E-45    3.627686E-43    8.592171E-41    1.527777E-38    2.083208E-36    2.167041E-34    1.641283E-32
         8.313689E-31    3.725997E-29    3.555248E-27    8.656680E-26    1.249505E-24   -2.504617E-23    1.249592E-24    8.658328E-26    3.558907E-27    3.760131E-29
         8.545026E-31    1.717483E-32    2.337573E-34    2.306674E-36    1.714551E-38    9.644978E-41    4.030952E-43    1.196473E-45    2.289591E-48    2.190257E-51
          0.00000    

 CONCENTRATION WILL BE SAVED ON UNIT 1030 AT END OF TIME STEP   14, STRESS PERIOD    1


  MASS BUDGET FOR ENTIRE MODEL AT END OF TIME STEP   14, STRESS PERIOD   1
  ---------------------------------------------------------------------------------------------------

     CUMULATIVE MASS      M       RATES FOR THIS TIME STEP      M/T          PACKAGE NAME    
     ------------------                 ------------------------                     ----------------

           IN:                                      IN:
           ---                                      ---
     STORAGE-AQUEOUS =       3.2501E-03       STORAGE-AQUEOUS =       2.3354E-06     MST                              
                 WEL =  3066000000.0000                   WEL =     8640000.0000     SSM_WEL-1                        
                 CHD =           0.0000                   CHD =           0.0000     SSM_CHD-1                        

            TOTAL IN =  3066000000.0033              TOTAL IN =     8640000.0000

          OUT:                                     OUT:
          ----                                     ----
     STORAGE-AQUEOUS =  3066000000.0032       STORAGE-AQUEOUS =     8640000.0000     MST                              
                 WEL =           0.0000                   WEL =           0.0000     SSM_WEL-1                        
                 CHD =       8.5942E-19                   CHD =       1.2803E-20     SSM_CHD-1                        

           TOTAL OUT =  3066000000.0032             TOTAL OUT =     8640000.0000

            IN - OUT =       4.4346E-05              IN - OUT =       6.5193E-08

 PERCENT DISCREPANCY =           0.00     PERCENT DISCREPANCY =           0.00




         TIME SUMMARY AT END OF TIME STEP   14 IN STRESS PERIOD    1
                    SECONDS     MINUTES      HOURS       DAYS        YEARS
                    -----------------------------------------------------------
   TIME STEP LENGTH 2.19000E+06  36500.      608.33      25.347     6.93969E-02
 STRESS PERIOD TIME 3.06600E+07 5.11000E+05  8516.7      354.86     0.97156    
         TOTAL TIME 3.06600E+07 5.11000E+05  8516.7      354.86     0.97156    


end timestep


start timestep kper="1" kstp="15" mode="normal"

 UBDSV1 SAVING  STORAGE-AQUEOUS ON UNIT   1029 AT TIME STEP     15, STRESS PERIOD      1
 UBDSV1 SAVING     FLOW-JA-FACE ON UNIT   1029 AT TIME STEP     15, STRESS PERIOD      1
 UBDSV06 SAVING  SOURCE-SINK MIX IN MODEL GWT_P06-MF6      PACKAGE GWT_P06-MF6     CONNECTED TO MODEL GWT_P06-MF6      PACKAGE SSM              ON UNIT   1029 AT TIME STEP     15, STRESS PERIOD      1
1
  CONCENTRATION IN LAYER   1 AT END OF TIME STEP  15 IN STRESS PERIOD    1
  ---------------------------------------------------------------------------

                1               2               3               4               5               6               7               8               9              10
               11              12              13              14              15              16              17              18              19              20
               21              22              23              24              25              26              27              28              29              30
               31
 ................................................................................................................................................................................................................................................................................................................................................................................................................................................................................................................
   1      0.00000        5.169126E-51    5.222467E-48    2.637182E-45    8.588512E-43    1.988259E-40    3.423354E-38    4.461016E-36    4.362229E-34    3.053094E-32
         1.405882E-30    5.824113E-29    5.771202E-27    1.376021E-25    1.990412E-24   -3.901418E-23    1.990304E-24    1.375858E-25    5.767882E-27    5.792370E-29
         1.380854E-30    2.955639E-32    4.114833E-34    4.097251E-36    3.084641E-38    1.776320E-40    7.684632E-43    2.382287E-45    4.791430E-48    4.837580E-51
          0.00000    
   2     5.169126E-51    4.949538E-48    2.494111E-45    8.259869E-43    1.978450E-40    3.593569E-38    5.066492E-36    5.574630E-34    4.698028E-32    2.841919E-30
         1.074130E-28    3.377077E-27    3.888018E-25    8.746083E-24    1.308858E-22   -2.343167E-21    1.308801E-22    8.745501E-24    3.886826E-25    3.362176E-27
         1.057347E-28    2.758727E-30    4.446396E-32    5.131147E-34    4.561361E-36    3.195056E-38    1.754307E-40    7.364538E-43    2.250104E-45    4.539488E-48
         4.837409E-51
   3     5.222467E-48    2.494111E-45    8.136972E-43    1.969100E-40    3.691768E-38    5.495788E-36    6.576096E-34    6.317879E-32    4.751194E-30    2.585849E-28
         8.427861E-27    1.874405E-25    2.440938E-23    5.072534E-22    7.901768E-21   -1.247629E-19    7.901569E-21    5.072520E-22    2.441007E-23    1.871761E-25
         8.342537E-27    2.525958E-28    4.529508E-30    5.850907E-32    5.937255E-34    4.879356E-36    3.254687E-38    1.738479E-40    7.241841E-43    2.248724E-45
         4.788763E-48
   4     2.637182E-45    8.259869E-43    1.969100E-40    3.722900E-38    5.716125E-36    7.232637E-34    7.597761E-32    6.596531E-30    4.592862E-28    2.354704E-26
         7.226875E-25    1.201290E-23    1.364672E-21    2.198199E-20    3.456459E-19   -7.058878E-18    3.456438E-19    2.198390E-20    1.365140E-21    1.205135E-23
         7.208920E-25    2.322419E-26    4.432165E-28    6.182741E-30    6.920056E-32    6.446771E-34    5.034318E-36    3.268934E-38    1.735965E-40    7.349575E-43
         2.377848E-45
   5     8.588512E-43    1.978450E-40    3.691768E-38    5.716125E-36    7.460933E-34    8.302158E-32    7.915939E-30    6.409293E-28    4.245199E-26    2.103111E-24
         6.373987E-23    8.759971E-22    5.464188E-20   -2.737354E-19   -4.090329E-18   -2.105270E-16   -4.090058E-18   -2.735946E-19    5.467546E-20    8.810791E-22
         6.391345E-23    2.094706E-24    4.159580E-26    6.116153E-28    7.328762E-30    7.486611E-32    6.610389E-34    5.022988E-36    3.242574E-38    1.746739E-40
         7.653194E-43
   6     1.988259E-40    3.593569E-38    5.495788E-36    7.232637E-34    8.302158E-32    8.393420E-30    7.472974E-28    5.743181E-26    3.624098E-24    1.704866E-22
         4.841748E-21    3.943997E-20   -1.048544E-18   -2.133540E-17   -1.071815E-15   -2.959991E-15   -1.071796E-15   -2.133104E-17   -1.047278E-18    3.974016E-20
         4.863592E-21    1.708694E-22    3.600817E-24    5.594812E-26    7.079474E-28    7.725072E-30    7.467336E-32    6.414968E-34    4.847479E-36    3.171940E-38
         1.763722E-40
   7     3.423354E-38    5.066492E-36    6.576096E-34    7.597761E-32    7.915939E-30    7.472974E-28    6.305710E-26    4.573872E-24    2.667543E-22    1.114318E-20
         2.393216E-19   -3.663572E-18   -5.970572E-17   -3.819082E-15   -3.454876E-14   -7.119973E-14   -3.454840E-14   -3.818977E-15   -5.968923E-17   -3.653821E-18
         2.405130E-19    1.119668E-20    2.673131E-22    4.535776E-24    6.124554E-26    7.066423E-28    7.295272E-30    6.870048E-32    5.882981E-34    4.515202E-36
         3.053044E-38
   8     4.461016E-36    5.574630E-34    6.317879E-32    6.596531E-30    6.409293E-28    5.743181E-26    4.573872E-24    3.038865E-22    1.533945E-20    4.785241E-19
        -9.633542E-19   -1.222940E-16   -8.531411E-15   -1.185713E-13   -2.959362E-13   -1.134164E-12   -2.959350E-13   -1.185712E-13   -8.532427E-15   -1.221964E-16
        -9.279283E-19    4.811912E-19    1.542301E-20    3.045120E-22    4.533839E-24    5.582820E-26    6.085772E-28    6.133232E-30    5.790054E-32    5.070556E-34
         4.046701E-36
   9     4.362229E-34    4.698028E-32    4.751194E-30    4.592862E-28    4.245199E-26    3.624098E-24    2.667543E-22    1.533945E-20    5.723687E-19    2.301078E-18
        -1.988595E-16   -1.460058E-14   -2.576334E-13   -1.293209E-12    1.590133E-11    4.275844E-10    1.590091E-11   -1.293210E-12   -2.576200E-13   -1.461082E-14
        -1.983755E-16    2.369360E-18    5.759548E-19    1.542674E-20    2.673363E-22    3.597060E-24    4.145120E-26    4.402941E-28    4.487088E-30    4.396766E-32
         4.065407E-34
  10     3.053094E-32    2.841919E-30    2.585849E-28    2.354704E-26    2.103111E-24    1.704866E-22    1.114318E-20    4.785241E-19    2.301078E-18   -2.351831E-16
        -1.911966E-14   -3.904089E-13   -3.292630E-12    8.432353E-11    4.076083E-09    1.107786E-07    4.076087E-09    8.432056E-11   -3.292058E-12   -3.903742E-13
        -1.914506E-14   -2.343200E-16    2.373915E-18    4.814905E-19    1.120433E-20    1.709174E-22    2.092343E-24    2.313882E-26    2.509753E-28    2.735767E-30
         2.928491E-32
  11     1.405882E-30    1.074130E-28    8.427861E-27    7.226875E-25    6.373987E-23    4.841748E-21    2.393216E-19   -9.633542E-19   -1.988595E-16   -1.911966E-14
        -4.446166E-13   -4.713978E-12    2.071047E-10    1.671222E-08    1.034718E-06    3.076967E-05    1.034718E-06    1.671226E-08    2.070893E-10   -4.711137E-12
        -4.446081E-13   -1.914705E-14   -1.982926E-16   -9.207831E-19    2.407928E-19    4.869252E-21    6.395974E-23    7.202483E-25    8.313250E-27    1.051479E-28
         1.371975E-30
  12     5.824113E-29    3.377077E-27    1.874405E-25    1.201290E-23    8.759971E-22    3.943997E-20   -3.663572E-18   -1.222940E-16   -1.460058E-14   -3.904089E-13
        -4.713978E-12    2.755839E-10    3.263018E-08    3.321052E-06    2.082551E-04    6.062106E-03    2.082551E-04    3.321052E-06    3.263030E-08    2.755489E-10
        -4.710657E-12   -3.903826E-13   -1.461344E-14   -1.221686E-16   -3.650729E-18    3.984529E-20    8.830504E-22    1.207000E-23    1.871588E-25    3.357575E-27
         5.781267E-29
  13     5.771202E-27    3.888018E-25    2.440938E-23    1.364672E-21    5.464188E-20   -1.048544E-18   -5.970572E-17   -8.531411E-15   -2.576334E-13   -3.292630E-12
         2.071047E-10    3.263018E-08    4.768132E-06    4.710901E-04    2.680107E-02    0.659898        2.680107E-02    4.710901E-04    4.768132E-06    3.263031E-08
         2.070853E-10   -3.291746E-12   -2.576193E-13   -8.533074E-15   -5.968792E-17   -1.046852E-18    5.468997E-20    1.365404E-21    2.441243E-23    3.886734E-25
         5.767122E-27
  14     1.376021E-25    8.746083E-24    5.072534E-22    2.198199E-20   -2.737354E-19   -2.133540E-17   -3.819082E-15   -1.185713E-13   -1.293209E-12    8.432353E-11
         1.671222E-08    3.321052E-06    4.710901E-04    3.967250E-02     1.57734         17.6834         1.57734        3.967250E-02    4.710901E-04    3.321052E-06
         1.671227E-08    8.431973E-11   -1.293194E-12   -1.185718E-13   -3.818980E-15   -2.133026E-17   -2.735514E-19    2.198492E-20    5.072672E-22    8.745673E-24
         1.375871E-25
  15     1.990412E-24    1.308858E-22    7.901768E-21    3.456459E-19   -4.090329E-18   -1.071815E-15   -3.454876E-14   -2.959362E-13    1.590133E-11    4.076083E-09
         1.034718E-06    2.082551E-04    2.680107E-02     1.57734         23.2712         75.1577         23.2712         1.57734        2.680107E-02    2.082551E-04
         1.034718E-06    4.076089E-09    1.590083E-11   -2.959350E-13   -3.454835E-14   -1.071793E-15   -4.090034E-18    3.456434E-19    7.901544E-21    1.308795E-22
         1.990293E-24
  16    -3.901418E-23   -2.343167E-21   -1.247629E-19   -7.058878E-18   -2.105270E-16   -2.959991E-15   -7.119973E-14   -1.134164E-12    4.275844E-10    1.107786E-07
         3.076967E-05    6.062106E-03    0.659898         17.6834         75.1577         99.2546         75.1577         17.6834        0.659898        6.062106E-03
         3.076967E-05    1.107786E-07    4.275844E-10   -1.134164E-12   -7.119972E-14   -2.959991E-15   -2.105270E-16   -7.058878E-18   -1.247629E-19   -2.343167E-21
        -3.901418E-23
  17     1.990304E-24    1.308801E-22    7.901569E-21    3.456438E-19   -4.090058E-18   -1.071796E-15   -3.454840E-14   -2.959350E-13    1.590091E-11    4.076087E-09
         1.034718E-06    2.082551E-04    2.680107E-02     1.57734         23.2712         75.1577         23.2712         1.57734        2.680107E-02    2.082551E-04
         1.034718E-06    4.076083E-09    1.590133E-11   -2.959361E-13   -3.454876E-14   -1.071815E-15   -4.090329E-18    3.456459E-19    7.901768E-21    1.308858E-22
         1.990412E-24
  18     1.375858E-25    8.745501E-24    5.072520E-22    2.198390E-20   -2.735946E-19   -2.133104E-17   -3.818977E-15   -1.185712E-13   -1.293210E-12    8.432056E-11
         1.671226E-08    3.321052E-06    4.710901E-04    3.967250E-02     1.57734         17.6834         1.57734        3.967250E-02    4.710901E-04    3.321052E-06
         1.671222E-08    8.432353E-11   -1.293209E-12   -1.185713E-13   -3.819082E-15   -2.133540E-17   -2.737354E-19    2.198199E-20    5.072534E-22    8.746082E-24
         1.376021E-25
  19     5.767882E-27    3.886826E-25    2.441007E-23    1.365140E-21    5.467546E-20   -1.047278E-18   -5.968923E-17   -8.532427E-15   -2.576200E-13   -3.292058E-12
         2.070893E-10    3.263030E-08    4.768132E-06    4.710901E-04    2.680107E-02    0.659898        2.680107E-02    4.710901E-04    4.768132E-06    3.263018E-08
         2.071047E-10   -3.292630E-12   -2.576334E-13   -8.531411E-15   -5.970572E-17   -1.048544E-18    5.464187E-20    1.364672E-21    2.440938E-23    3.888018E-25
         5.771201E-27
  20     5.792370E-29    3.362176E-27    1.871761E-25    1.205135E-23    8.810791E-22    3.974016E-20   -3.653821E-18   -1.221964E-16   -1.461082E-14   -3.903742E-13
        -4.711137E-12    2.755489E-10    3.263031E-08    3.321052E-06    2.082551E-04    6.062106E-03    2.082551E-04    3.321052E-06    3.263018E-08    2.755839E-10
        -4.713978E-12   -3.904089E-13   -1.460058E-14   -1.222940E-16   -3.663572E-18    3.943996E-20    8.759970E-22    1.201290E-23    1.874405E-25    3.377077E-27
         5.824112E-29
  21     1.380854E-30    1.057347E-28    8.342537E-27    7.208920E-25    6.391345E-23    4.863592E-21    2.405130E-19   -9.279283E-19   -1.983755E-16   -1.914506E-14
        -4.446081E-13   -4.710657E-12    2.070853E-10    1.671227E-08    1.034718E-06    3.076967E-05    1.034718E-06    1.671222E-08    2.071047E-10   -4.713978E-12
        -4.446166E-13   -1.911966E-14   -1.988595E-16   -9.633542E-19    2.393216E-19    4.841748E-21    6.373987E-23    7.226875E-25    8.427861E-27    1.074130E-28
         1.405882E-30
  22     2.955639E-32    2.758727E-30    2.525958E-28    2.322419E-26    2.094706E-24    1.708694E-22    1.119668E-20    4.811912E-19    2.369360E-18   -2.343200E-16
        -1.914705E-14   -3.903826E-13   -3.291746E-12    8.431973E-11    4.076089E-09    1.107786E-07    4.076083E-09    8.432353E-11   -3.292630E-12   -3.904089E-13
        -1.911966E-14   -2.351831E-16    2.301078E-18    4.785241E-19    1.114318E-20    1.704866E-22    2.103111E-24    2.354704E-26    2.585849E-28    2.841919E-30
         3.053094E-32
  23     4.114833E-34    4.446396E-32    4.529508E-30    4.432165E-28    4.159580E-26    3.600817E-24    2.673131E-22    1.542301E-20    5.759548E-19    2.373915E-18
        -1.982926E-16   -1.461344E-14   -2.576193E-13   -1.293194E-12    1.590083E-11    4.275844E-10    1.590133E-11   -1.293209E-12   -2.576334E-13   -1.460058E-14
        -1.988595E-16    2.301078E-18    5.723687E-19    1.533945E-20    2.667543E-22    3.624098E-24    4.245199E-26    4.592862E-28    4.751194E-30    4.698028E-32
         4.362229E-34
  24     4.097251E-36    5.131147E-34    5.850907E-32    6.182741E-30    6.116153E-28    5.594812E-26    4.535776E-24    3.045120E-22    1.542674E-20    4.814905E-19
        -9.207831E-19   -1.221686E-16   -8.533074E-15   -1.185718E-13   -2.959350E-13   -1.134164E-12   -2.959361E-13   -1.185713E-13   -8.531411E-15   -1.222940E-16
        -9.633542E-19    4.785241E-19    1.533945E-20    3.038865E-22    4.573872E-24    5.743181E-26    6.409293E-28    6.596531E-30    6.317879E-32    5.574630E-34
         4.461016E-36
  25     3.084641E-38    4.561361E-36    5.937255E-34    6.920056E-32    7.328762E-30    7.079474E-28    6.124554E-26    4.533839E-24    2.673363E-22    1.120433E-20
         2.407928E-19   -3.650729E-18   -5.968792E-17   -3.818980E-15   -3.454835E-14   -7.119972E-14   -3.454876E-14   -3.819082E-15   -5.970572E-17   -3.663572E-18
         2.393216E-19    1.114318E-20    2.667543E-22    4.573872E-24    6.305710E-26    7.472974E-28    7.915939E-30    7.597761E-32    6.576096E-34    5.066492E-36
         3.423354E-38
  26     1.776320E-40    3.195056E-38    4.879356E-36    6.446771E-34    7.486611E-32    7.725072E-30    7.066423E-28    5.582820E-26    3.597060E-24    1.709174E-22
         4.869252E-21    3.984529E-20   -1.046852E-18   -2.133026E-17   -1.071793E-15   -2.959991E-15   -1.071815E-15   -2.133540E-17   -1.048544E-18    3.943996E-20
         4.841748E-21    1.704866E-22    3.624098E-24    5.743181E-26    7.472974E-28    8.393420E-30    8.302158E-32    7.232637E-34    5.495788E-36    3.593569E-38
         1.988259E-40
  27     7.684632E-43    1.754307E-40    3.254687E-38    5.034318E-36    6.610389E-34    7.467336E-32    7.295272E-30    6.085772E-28    4.145120E-26    2.092343E-24
         6.395974E-23    8.830504E-22    5.468997E-20   -2.735514E-19   -4.090034E-18   -2.105270E-16   -4.090329E-18   -2.737354E-19    5.464187E-20    8.759970E-22
         6.373987E-23    2.103111E-24    4.245199E-26    6.409293E-28    7.915939E-30    8.302158E-32    7.460933E-34    5.716125E-36    3.691769E-38    1.978450E-40
         8.588512E-43
  28     2.382287E-45    7.364538E-43    1.738479E-40    3.268934E-38    5.022988E-36    6.414968E-34    6.870048E-32    6.133232E-30    4.402941E-28    2.313882E-26
         7.202483E-25    1.207000E-23    1.365404E-21    2.198492E-20    3.456434E-19   -7.058878E-18    3.456459E-19    2.198199E-20    1.364672E-21    1.201290E-23
         7.226875E-25    2.354704E-26    4.592862E-28    6.596531E-30    7.597761E-32    7.232637E-34    5.716125E-36    3.722900E-38    1.969100E-40    8.259869E-43
         2.637182E-45
  29     4.791430E-48    2.250104E-45    7.241841E-43    1.735965E-40    3.242574E-38    4.847479E-36    5.882981E-34    5.790054E-32    4.487088E-30    2.509753E-28
         8.313250E-27    1.871588E-25    2.441243E-23    5.072672E-22    7.901544E-21   -1.247629E-19    7.901768E-21    5.072534E-22    2.440938E-23    1.874405E-25
         8.427861E-27    2.585849E-28    4.751194E-30    6.317879E-32    6.576096E-34    5.495788E-36    3.691769E-38    1.969100E-40    8.136972E-43    2.494111E-45
         5.222467E-48
  30     4.837580E-51    4.539488E-48    2.248724E-45    7.349575E-43    1.746739E-40    3.171940E-38    4.515202E-36    5.070556E-34    4.396766E-32    2.735767E-30
         1.051479E-28    3.357575E-27    3.886734E-25    8.745673E-24    1.308795E-22   -2.343167E-21    1.308858E-22    8.746082E-24    3.888018E-25    3.377077E-27
         1.074130E-28    2.841919E-30    4.698028E-32    5.574630E-34    5.066492E-36    3.593569E-38    1.978450E-40    8.259869E-43    2.494111E-45    4.949539E-48
         5.169126E-51
  31      0.00000        4.837409E-51    4.788763E-48    2.377848E-45    7.653194E-43    1.763722E-40    3.053044E-38    4.046701E-36    4.065407E-34    2.928491E-32
         1.371975E-30    5.781267E-29    5.767122E-27    1.375871E-25    1.990293E-24   -3.901418E-23    1.990412E-24    1.376021E-25    5.771201E-27    5.824112E-29
         1.405882E-30    3.053094E-32    4.362229E-34    4.461016E-36    3.423354E-38    1.988259E-40    8.588512E-43    2.637182E-45    5.222467E-48    5.169126E-51
          0.00000    

 CONCENTRATION WILL BE SAVED ON UNIT 1030 AT END OF TIME STEP   15, STRESS PERIOD    1


  MASS BUDGET FOR ENTIRE MODEL AT END OF TIME STEP   15, STRESS PERIOD   1
  ---------------------------------------------------------------------------------------------------

     CUMULATIVE MASS      M       RATES FOR THIS TIME STEP      M/T          PACKAGE NAME    
     ------------------                 ------------------------                     ----------------

           IN:                                      IN:
           ---                                      ---
     STORAGE-AQUEOUS =       3.4851E-03       STORAGE-AQUEOUS =       9.2707E-06     MST                              
                 WEL =  3285000000.0000                   WEL =     8640000.0000     SSM_WEL-1                        
                 CHD =           0.0000                   CHD =           0.0000     SSM_CHD-1                        

            TOTAL IN =  3285000000.0035              TOTAL IN =     8640000.0000

          OUT:                                     OUT:
          ----                                     ----
     STORAGE-AQUEOUS =  3285000000.0034       STORAGE-AQUEOUS =     8640000.0000     MST                              
                 WEL =           0.0000                   WEL =           0.0000     SSM_WEL-1                        
                 CHD =       1.3763E-18                   CHD =       2.0392E-20     SSM_CHD-1                        

           TOTAL OUT =  3285000000.0034             TOTAL OUT =     8640000.0000

            IN - OUT =       5.3406E-05              IN - OUT =       3.5577E-07

 PERCENT DISCREPANCY =           0.00     PERCENT DISCREPANCY =           0.00




         TIME SUMMARY AT END OF TIME STEP   15 IN STRESS PERIOD    1
                    SECONDS     MINUTES      HOURS       DAYS        YEARS
                    -----------------------------------------------------------
   TIME STEP LENGTH 2.19000E+06  36500.      608.33      25.347     6.93969E-02
 STRESS PERIOD TIME 3.28500E+07 5.47500E+05  9125.0      380.21      1.0410    
         TOTAL TIME 3.28500E+07 5.47500E+05  9125.0      380.21      1.0410    


end timestep


start timestep kper="1" kstp="16" mode="normal"

 UBDSV1 SAVING  STORAGE-AQUEOUS ON UNIT   1029 AT TIME STEP     16, STRESS PERIOD      1
 UBDSV1 SAVING     FLOW-JA-FACE ON UNIT   1029 AT TIME STEP     16, STRESS PERIOD      1
 UBDSV06 SAVING  SOURCE-SINK MIX IN MODEL GWT_P06-MF6      PACKAGE GWT_P06-MF6     CONNECTED TO MODEL GWT_P06-MF6      PACKAGE SSM              ON UNIT   1029 AT TIME STEP     16, STRESS PERIOD      1
1
  CONCENTRATION IN LAYER   1 AT END OF TIME STEP  16 IN STRESS PERIOD    1
  ---------------------------------------------------------------------------

                1               2               3               4               5               6               7               8               9              10
               11              12              13              14              15              16              17              18              19              20
               21              22              23              24              25              26              27              28              29              30
               31
 ................................................................................................................................................................................................................................................................................................................................................................................................................................................................................................................
   1      0.00000        1.171386E-50    1.147431E-47    5.621316E-45    1.778286E-42    4.005748E-40    6.721659E-38    8.536915E-36    8.104735E-34    5.445507E-32
         2.352059E-30    9.163054E-29    9.078226E-27    2.093465E-25    2.990668E-24   -6.011761E-23    2.990539E-24    2.093359E-25    9.075194E-27    9.128911E-29
         2.318383E-30    5.296432E-32    7.697744E-34    7.899186E-36    6.089638E-38    3.584232E-40    1.585803E-42    5.034752E-45    1.038353E-47    1.075777E-50
          0.00000    
   2     1.171386E-50    1.087476E-47    5.316984E-45    1.711127E-42    3.992430E-40    7.085438E-38    9.788537E-36    1.056380E-33    8.705456E-32    5.107637E-30
         1.851098E-28    5.486537E-27    5.813645E-25    1.229855E-23    1.778300E-22   -3.540500E-21    1.778255E-22    1.229894E-23    5.813728E-25    5.479727E-27
         1.832935E-28    4.994453E-30    8.324051E-32    9.838001E-34    8.904516E-36    6.342115E-38    3.546589E-40    1.520404E-42    4.755249E-45    9.836670E-48
         1.075706E-50
   3     1.147431E-47    5.316984E-45    1.685952E-42    3.976561E-40    7.295428E-38    1.067587E-35    1.260387E-33    1.195324E-31    8.833553E-30    4.688847E-28
         1.490891E-26    3.128288E-25    3.309504E-23    5.973229E-22    8.384351E-21   -2.013949E-19    8.384399E-21    5.974076E-22    3.311021E-23    3.138605E-25
         1.486447E-26    4.622339E-28    8.532764E-30    1.124828E-31    1.155986E-33    9.597323E-36    6.480021E-38    3.517693E-40    1.495206E-42    4.751872E-45
         1.037596E-47
   4     5.621316E-45    1.711127E-42    3.976561E-40    7.362157E-38    1.113146E-35    1.394477E-33    1.453816E-31    1.247936E-29    8.494559E-28    4.193111E-26
         1.220693E-24    1.663173E-23    1.436168E-21    1.445581E-20    1.111323E-19   -1.247480E-17    1.111473E-19    1.446337E-20    1.437637E-21    1.678865E-23
         1.225285E-24    4.172726E-26    8.312968E-28    1.191858E-29    1.351601E-31    1.266061E-33    9.938297E-36    6.515023E-38    3.512563E-40    1.517096E-42
         5.023910E-45
   5     1.778286E-42    3.992430E-40    7.295428E-38    1.113146E-35    1.441159E-33    1.596658E-31    1.510798E-29    1.197848E-27    7.594328E-26    3.490545E-24
         9.165410E-23    4.767898E-22    1.084921E-20   -1.186835E-18   -3.439554E-17   -4.497037E-16   -3.439455E-17   -1.186465E-18    1.093187E-20    4.891758E-22
         9.235191E-23    3.501260E-24    7.532906E-26    1.164498E-27    1.431206E-29    1.473642E-31    1.302149E-33    9.918221E-36    6.457033E-38    3.531175E-40
         1.578874E-42
   6     4.005748E-40    7.085438E-38    1.067587E-35    1.394477E-33    1.596658E-31    1.606328E-29    1.403537E-27    1.031931E-25    6.015016E-24    2.474454E-22
         5.077188E-21   -6.960230E-20   -6.566516E-18   -1.315182E-16   -2.240819E-15   -7.442089E-15   -2.240779E-15   -1.315083E-16   -6.563768E-18   -6.899754E-20
         5.128345E-21    2.492898E-22    6.030913E-24    1.020820E-25    1.358652E-27    1.515706E-29    1.470720E-31    1.260824E-33    9.540936E-36    6.298358E-38
         3.558663E-40
   7     6.721659E-38    9.788537E-36    1.260387E-33    1.453816E-31    1.510798E-29    1.403537E-27    1.134998E-25    7.610189E-24    3.903399E-22    1.283260E-20
         7.947245E-20   -1.512096E-17   -3.243252E-16   -7.483656E-15   -6.127531E-14   -7.225956E-14   -6.127495E-14   -7.483431E-15   -3.242857E-16   -1.510356E-17
         8.171601E-20    1.295951E-20    3.936032E-22    7.628942E-24    1.121281E-25    1.357157E-27    1.426660E-29    1.344037E-31    1.147070E-33    8.823106E-36
         6.030040E-38
   8     8.536915E-36    1.056380E-33    1.195324E-31    1.247936E-29    1.197848E-27    1.031931E-25    7.610189E-24    4.461531E-22    1.813446E-20    2.923553E-19
        -1.876770E-17   -6.019359E-16   -1.601804E-14   -1.842478E-13   -4.279013E-13    5.273371E-13   -4.279061E-13   -1.842473E-13   -1.601933E-14   -6.017044E-16
        -1.871218E-17    2.972841E-19    1.833613E-20    4.501857E-22    7.629256E-24    1.019883E-25    1.161037E-27    1.185161E-29    1.115648E-31    9.738706E-34
         7.810259E-36
   9     8.104735E-34    8.705456E-32    8.833553E-30    8.494559E-28    7.594328E-26    6.015016E-24    3.903399E-22    1.813446E-20    3.784649E-19   -1.976421E-17
        -8.746976E-16   -2.630983E-14   -3.538509E-13   -2.513155E-12    3.635837E-11    6.625232E-10    3.635780E-11   -2.513228E-12   -3.538230E-13   -2.632497E-14
        -8.738750E-16   -1.966132E-17    3.850773E-19    1.834548E-20    3.938638E-22    6.031971E-24    7.522004E-26    8.279998E-28    8.475560E-30    8.249195E-32
         7.616651E-34
  10     5.445507E-32    5.107637E-30    4.688847E-28    4.193111E-26    3.490545E-24    2.474454E-22    1.283260E-20    2.923553E-19   -1.976421E-17   -9.912859E-16
        -3.365271E-14   -5.135719E-13   -5.564266E-12    1.658203E-10    6.394294E-09    1.723177E-07    6.394301E-09    1.658171E-10   -5.563950E-12   -5.134733E-13
        -3.369197E-14   -9.899573E-16   -1.965476E-17    2.978258E-19    1.297792E-20    2.496012E-22    3.502932E-24    4.166963E-26    4.604436E-28    4.963560E-30
         5.255274E-32
  11     2.352059E-30    1.851098E-28    1.490891E-26    1.220693E-24    9.165410E-23    5.077188E-21    7.947245E-20   -1.876770E-17   -8.746976E-16   -3.365271E-14
        -5.793250E-13   -7.441412E-12    3.826066E-10    2.648508E-08    1.609221E-06    4.574638E-05    1.609221E-06    2.648513E-08    3.825903E-10   -7.438977E-12
        -5.792029E-13   -3.369535E-14   -8.737474E-16   -1.870164E-17    8.221885E-20    5.141143E-21    9.254134E-23    1.226582E-24    1.484896E-26    1.826727E-28
         2.306679E-30
  12     9.163054E-29    5.486537E-27    3.128288E-25    1.663173E-23    4.767898E-22   -6.960230E-20   -1.512096E-17   -6.019359E-16   -2.630983E-14   -5.135719E-13
        -7.441412E-12    5.010874E-10    5.195833E-08    5.158167E-06    3.090899E-04    8.566190E-03    3.090899E-04    5.158167E-06    5.195848E-08    5.010493E-10
        -7.438472E-12   -5.134713E-13   -2.632916E-14   -6.016493E-16   -1.509852E-17   -6.880346E-20    4.934934E-22    1.684935E-23    3.143587E-25    5.479094E-27
         9.118290E-29
  13     9.078226E-27    5.813645E-25    3.309504E-23    1.436168E-21    1.084921E-20   -6.566516E-18   -3.243252E-16   -1.601804E-14   -3.538509E-13   -5.564266E-12
         3.826066E-10    5.195833E-08    7.399651E-06    6.971507E-04    3.762031E-02    0.859605        3.762031E-02    6.971507E-04    7.399650E-06    5.195849E-08
         3.825856E-10   -5.563633E-12   -3.538193E-13   -1.602025E-14   -3.242822E-16   -6.562953E-18    1.096130E-20    1.438247E-21    3.311833E-23    5.814271E-25
         9.074858E-27
  14     2.093465E-25    1.229855E-23    5.973229E-22    1.445581E-20   -1.186835E-18   -1.315182E-16   -7.483656E-15   -1.842478E-13   -2.513155E-12    1.658203E-10
         2.648508E-08    5.158167E-06    6.971507E-04    5.540933E-02     2.02348         20.2610         2.02348        5.540933E-02    6.971507E-04    5.158167E-06
         2.648514E-08    1.658161E-10   -2.513220E-12   -1.842480E-13   -7.483422E-15   -1.315067E-16   -1.186374E-18    1.446576E-20    5.974480E-22    1.229948E-23
         2.093414E-25
  15     2.990668E-24    1.778300E-22    8.384351E-21    1.111323E-19   -3.439554E-17   -2.240819E-15   -6.127531E-14   -4.279013E-13    3.635837E-11    6.394294E-09
         1.609221E-06    3.090899E-04    3.762031E-02     2.02348         26.4458         77.8771         26.4458         2.02348        3.762031E-02    3.090899E-04
         1.609221E-06    6.394303E-09    3.635768E-11   -4.279073E-13   -6.127490E-14   -2.240773E-15   -3.439443E-17    1.111487E-19    8.384398E-21    1.778249E-22
         2.990525E-24
  16    -6.011761E-23   -3.540500E-21   -2.013949E-19   -1.247480E-17   -4.497037E-16   -7.442089E-15   -7.225956E-14    5.273371E-13    6.625232E-10    1.723177E-07
         4.574638E-05    8.566190E-03    0.859605         20.2610         77.8771         99.4623         77.8771         20.2610        0.859605        8.566190E-03
         4.574638E-05    1.723177E-07    6.625232E-10    5.273372E-13   -7.225954E-14   -7.442089E-15   -4.497037E-16   -1.247480E-17   -2.013949E-19   -3.540500E-21
        -6.011761E-23
  17     2.990539E-24    1.778255E-22    8.384399E-21    1.111473E-19   -3.439455E-17   -2.240779E-15   -6.127495E-14   -4.279061E-13    3.635780E-11    6.394301E-09
         1.609221E-06    3.090899E-04    3.762031E-02     2.02348         26.4458         77.8771         26.4458         2.02348        3.762031E-02    3.090899E-04
         1.609221E-06    6.394294E-09    3.635837E-11   -4.279012E-13   -6.127531E-14   -2.240819E-15   -3.439554E-17    1.111323E-19    8.384351E-21    1.778300E-22
         2.990668E-24
  18     2.093359E-25    1.229894E-23    5.974076E-22    1.446337E-20   -1.186465E-18   -1.315083E-16   -7.483431E-15   -1.842473E-13   -2.513228E-12    1.658171E-10
         2.648513E-08    5.158167E-06    6.971507E-04    5.540933E-02     2.02348         20.2610         2.02348        5.540933E-02    6.971507E-04    5.158167E-06
         2.648508E-08    1.658203E-10   -2.513155E-12   -1.842478E-13   -7.483656E-15   -1.315182E-16   -1.186835E-18    1.445581E-20    5.973229E-22    1.229855E-23
         2.093465E-25
  19     9.075194E-27    5.813728E-25    3.311021E-23    1.437637E-21    1.093187E-20   -6.563768E-18   -3.242857E-16   -1.601933E-14   -3.538230E-13   -5.563950E-12
         3.825903E-10    5.195848E-08    7.399650E-06    6.971507E-04    3.762031E-02    0.859605        3.762031E-02    6.971507E-04    7.399651E-06    5.195833E-08
         3.826066E-10   -5.564266E-12   -3.538508E-13   -1.601804E-14   -3.243252E-16   -6.566516E-18    1.084921E-20    1.436168E-21    3.309504E-23    5.813645E-25
         9.078225E-27
  20     9.128911E-29    5.479727E-27    3.138605E-25    1.678865E-23    4.891758E-22   -6.899754E-20   -1.510356E-17   -6.017044E-16   -2.632497E-14   -5.134733E-13
        -7.438977E-12    5.010493E-10    5.195849E-08    5.158167E-06    3.090899E-04    8.566190E-03    3.090899E-04    5.158167E-06    5.195833E-08    5.010874E-10
        -7.441412E-12   -5.135719E-13   -2.630983E-14   -6.019359E-16   -1.512096E-17   -6.960230E-20    4.767897E-22    1.663173E-23    3.128287E-25    5.486536E-27
         9.163053E-29
  21     2.318383E-30    1.832935E-28    1.486447E-26    1.225285E-24    9.235192E-23    5.128345E-21    8.171601E-20   -1.871218E-17   -8.738750E-16   -3.369197E-14
        -5.792029E-13   -7.438472E-12    3.825856E-10    2.648514E-08    1.609221E-06    4.574638E-05    1.609221E-06    2.648508E-08    3.826066E-10   -7.441412E-12
        -5.793250E-13   -3.365271E-14   -8.746976E-16   -1.876770E-17    7.947245E-20    5.077188E-21    9.165410E-23    1.220693E-24    1.490891E-26    1.851098E-28
         2.352058E-30
  22     5.296432E-32    4.994453E-30    4.622339E-28    4.172726E-26    3.501260E-24    2.492898E-22    1.295951E-20    2.972841E-19   -1.966132E-17   -9.899573E-16
        -3.369535E-14   -5.134713E-13   -5.563633E-12    1.658161E-10    6.394303E-09    1.723177E-07    6.394294E-09    1.658203E-10   -5.564266E-12   -5.135719E-13
        -3.365271E-14   -9.912859E-16   -1.976421E-17    2.923553E-19    1.283260E-20    2.474454E-22    3.490545E-24    4.193111E-26    4.688847E-28    5.107637E-30
         5.445507E-32
  23     7.697744E-34    8.324051E-32    8.532764E-30    8.312968E-28    7.532906E-26    6.030913E-24    3.936032E-22    1.833613E-20    3.850773E-19   -1.965476E-17
        -8.737474E-16   -2.632916E-14   -3.538193E-13   -2.513220E-12    3.635768E-11    6.625232E-10    3.635837E-11   -2.513155E-12   -3.538508E-13   -2.630983E-14
        -8.746976E-16   -1.976421E-17    3.784649E-19    1.813446E-20    3.903399E-22    6.015016E-24    7.594328E-26    8.494559E-28    8.833553E-30    8.705456E-32
         8.104735E-34
  24     7.899187E-36    9.838001E-34    1.124828E-31    1.191858E-29    1.164498E-27    1.020820E-25    7.628942E-24    4.501857E-22    1.834548E-20    2.978258E-19
        -1.870164E-17   -6.016493E-16   -1.602025E-14   -1.842480E-13   -4.279073E-13    5.273372E-13   -4.279012E-13   -1.842478E-13   -1.601804E-14   -6.019359E-16
        -1.876770E-17    2.923553E-19    1.813446E-20    4.461531E-22    7.610189E-24    1.031932E-25    1.197848E-27    1.247936E-29    1.195324E-31    1.056380E-33
         8.536915E-36
  25     6.089638E-38    8.904516E-36    1.155986E-33    1.351601E-31    1.431206E-29    1.358652E-27    1.121281E-25    7.629256E-24    3.938638E-22    1.297792E-20
         8.221885E-20   -1.509852E-17   -3.242822E-16   -7.483422E-15   -6.127490E-14   -7.225954E-14   -6.127531E-14   -7.483656E-15   -3.243252E-16   -1.512096E-17
         7.947245E-20    1.283260E-20    3.903399E-22    7.610189E-24    1.134998E-25    1.403537E-27    1.510798E-29    1.453816E-31    1.260387E-33    9.788537E-36
         6.721659E-38
  26     3.584232E-40    6.342115E-38    9.597323E-36    1.266061E-33    1.473642E-31    1.515706E-29    1.357157E-27    1.019883E-25    6.031971E-24    2.496012E-22
         5.141143E-21   -6.880346E-20   -6.562953E-18   -1.315067E-16   -2.240773E-15   -7.442089E-15   -2.240819E-15   -1.315182E-16   -6.566516E-18   -6.960230E-20
         5.077188E-21    2.474454E-22    6.015016E-24    1.031932E-25    1.403537E-27    1.606328E-29    1.596658E-31    1.394477E-33    1.067587E-35    7.085438E-38
         4.005748E-40
  27     1.585803E-42    3.546589E-40    6.480021E-38    9.938297E-36    1.302149E-33    1.470720E-31    1.426660E-29    1.161037E-27    7.522004E-26    3.502932E-24
         9.254134E-23    4.934934E-22    1.096130E-20   -1.186374E-18   -3.439443E-17   -4.497037E-16   -3.439554E-17   -1.186835E-18    1.084921E-20    4.767897E-22
         9.165410E-23    3.490545E-24    7.594328E-26    1.197848E-27    1.510798E-29    1.596658E-31    1.441159E-33    1.113146E-35    7.295428E-38    3.992430E-40
         1.778286E-42
  28     5.034752E-45    1.520404E-42    3.517693E-40    6.515023E-38    9.918221E-36    1.260824E-33    1.344037E-31    1.185161E-29    8.279998E-28    4.166963E-26
         1.226582E-24    1.684935E-23    1.438247E-21    1.446576E-20    1.111487E-19   -1.247480E-17    1.111323E-19    1.445581E-20    1.436168E-21    1.663173E-23
         1.220693E-24    4.193111E-26    8.494559E-28    1.247936E-29    1.453816E-31    1.394477E-33    1.113146E-35    7.362157E-38    3.976561E-40    1.711127E-42
         5.621316E-45
  29     1.038353E-47    4.755249E-45    1.495206E-42    3.512563E-40    6.457033E-38    9.540936E-36    1.147070E-33    1.115648E-31    8.475560E-30    4.604436E-28
         1.484896E-26    3.143587E-25    3.311833E-23    5.974480E-22    8.384398E-21   -2.013949E-19    8.384351E-21    5.973229E-22    3.309504E-23    3.128287E-25
         1.490891E-26    4.688847E-28    8.833553E-30    1.195324E-31    1.260387E-33    1.067587E-35    7.295428E-38    3.976561E-40    1.685952E-42    5.316984E-45
         1.147431E-47
  30     1.075777E-50    9.836670E-48    4.751872E-45    1.517096E-42    3.531175E-40    6.298358E-38    8.823106E-36    9.738706E-34    8.249195E-32    4.963560E-30
         1.826727E-28    5.479094E-27    5.814271E-25    1.229948E-23    1.778249E-22   -3.540500E-21    1.778300E-22    1.229855E-23    5.813645E-25    5.486536E-27
         1.851098E-28    5.107637E-30    8.705456E-32    1.056380E-33    9.788537E-36    7.085438E-38    3.992430E-40    1.711127E-42    5.316984E-45    1.087476E-47
         1.171386E-50
  31      0.00000        1.075706E-50    1.037596E-47    5.023910E-45    1.578874E-42    3.558663E-40    6.030040E-38    7.810259E-36    7.616651E-34    5.255274E-32
         2.306679E-30    9.118290E-29    9.074858E-27    2.093414E-25    2.990525E-24   -6.011761E-23    2.990668E-24    2.093465E-25    9.078225E-27    9.163053E-29
         2.352058E-30    5.445507E-32    8.104735E-34    8.536915E-36    6.721659E-38    4.005748E-40    1.778286E-42    5.621316E-45    1.147431E-47    1.171386E-50
          0.00000    

 CONCENTRATION WILL BE SAVED ON UNIT 1030 AT END OF TIME STEP   16, STRESS PERIOD    1


  MASS BUDGET FOR ENTIRE MODEL AT END OF TIME STEP   16, STRESS PERIOD   1
  ---------------------------------------------------------------------------------------------------

     CUMULATIVE MASS      M       RATES FOR THIS TIME STEP      M/T          PACKAGE NAME    
     ------------------                 ------------------------                     ----------------

           IN:                                      IN:
           ---                                      ---
     STORAGE-AQUEOUS =       3.7924E-03       STORAGE-AQUEOUS =       1.2122E-05     MST                              
                 WEL =  3504000000.0000                   WEL =     8640000.0000     SSM_WEL-1                        
                 CHD =           0.0000                   CHD =           0.0000     SSM_CHD-1                        

            TOTAL IN =  3504000000.0038              TOTAL IN =     8640000.0000

          OUT:                                     OUT:
          ----                                     ----
     STORAGE-AQUEOUS =  3504000000.0037       STORAGE-AQUEOUS =     8640000.0000     MST                              
                 WEL =           0.0000                   WEL =           0.0000     SSM_WEL-1                        
                 CHD =       2.1536E-18                   CHD =       3.0668E-20     SSM_CHD-1                        

           TOTAL OUT =  3504000000.0037             TOTAL OUT =     8640000.0000

            IN - OUT =       5.6267E-05              IN - OUT =       1.1176E-07

 PERCENT DISCREPANCY =           0.00     PERCENT DISCREPANCY =           0.00




         TIME SUMMARY AT END OF TIME STEP   16 IN STRESS PERIOD    1
                    SECONDS     MINUTES      HOURS       DAYS        YEARS
                    -----------------------------------------------------------
   TIME STEP LENGTH 2.19000E+06  36500.      608.33      25.347     6.93969E-02
 STRESS PERIOD TIME 3.50400E+07 5.84000E+05  9733.3      405.56      1.1104    
         TOTAL TIME 3.50400E+07 5.84000E+05  9733.3      405.56      1.1104    


end timestep


start timestep kper="1" kstp="17" mode="normal"

 UBDSV1 SAVING  STORAGE-AQUEOUS ON UNIT   1029 AT TIME STEP     17, STRESS PERIOD      1
 UBDSV1 SAVING     FLOW-JA-FACE ON UNIT   1029 AT TIME STEP     17, STRESS PERIOD      1
 UBDSV06 SAVING  SOURCE-SINK MIX IN MODEL GWT_P06-MF6      PACKAGE GWT_P06-MF6     CONNECTED TO MODEL GWT_P06-MF6      PACKAGE SSM              ON UNIT   1029 AT TIME STEP     17, STRESS PERIOD      1
1
  CONCENTRATION IN LAYER   1 AT END OF TIME STEP  17 IN STRESS PERIOD    1
  ---------------------------------------------------------------------------

                1               2               3               4               5               6               7               8               9              10
               11              12              13              14              15              16              17              18              19              20
               21              22              23              24              25              26              27              28              29              30
               31
 ................................................................................................................................................................................................................................................................................................................................................................................................................................................................................................................
   1      0.00000        2.566093E-50    2.445264E-47    1.166844E-44    3.601737E-42    7.931440E-40    1.302649E-37    1.617864E-35    1.494709E-33    9.666957E-32
         3.934419E-30    1.419384E-28    1.366810E-26    3.007391E-25    4.144565E-24   -9.196595E-23    4.144434E-24    3.007434E-25    1.366693E-26    1.416931E-28
         3.894317E-30    9.455184E-32    1.431383E-33    1.511612E-35    1.190659E-37    7.138803E-40    3.217313E-42    1.041949E-44    2.195699E-47    2.327579E-50
          0.00000    
   2     2.566093E-50    2.317527E-47    1.103850E-44    3.468006E-42    7.920236E-40    1.379444E-37    1.872830E-35    1.983402E-33    1.594796E-31    9.035704E-30
         3.107427E-28    8.272222E-27    8.071277E-25    1.567345E-23    2.082414E-22   -5.343460E-21    2.082401E-22    1.567549E-23    8.074095E-25    8.287355E-27
         3.093448E-28    8.897758E-30    1.540671E-31    1.870812E-33    1.725726E-35    1.247769E-37    7.081789E-40    3.087016E-42    9.842120E-45    2.079966E-47
         2.327378E-50
   3     2.445264E-47    1.103850E-44    3.417716E-42    7.895797E-40    1.423814E-37    2.053684E-35    2.390595E-33    2.226393E-31    1.600731E-29    8.150334E-28
         2.422324E-26    4.085041E-25    3.879670E-23    5.679187E-22    5.876701E-21   -3.032668E-19    5.877110E-21    5.681305E-22    3.883636E-23    4.119705E-25
         2.428356E-26    8.093537E-28    1.563550E-29    2.126397E-31    2.228754E-33    1.874234E-35    1.279352E-37    7.032669E-40    3.036591E-42    9.834660E-45
         2.193863E-47
   4     1.166844E-44    3.468006E-42    7.895797E-40    1.437947E-37    2.146604E-35    2.658951E-33    2.732200E-31    2.289213E-29    1.496130E-27    6.916469E-26
         1.767847E-24    1.020454E-23    9.359862E-22   -4.924779E-21   -3.612865E-19   -1.662844E-17   -3.612512E-19   -4.909849E-21    9.389783E-22    1.054640E-23
         1.783826E-24    6.927036E-26    1.479324E-27    2.219468E-29    2.587149E-31    2.459866E-33    1.948054E-35    1.287836E-37    7.022853E-40    3.080246E-42
         1.039556E-44
   5     3.601737E-42    7.920236E-40    1.423814E-37    2.146604E-35    2.752497E-33    3.012694E-31    2.788843E-29    2.125009E-27    1.261441E-25    5.195659E-24
         1.037303E-22   -1.349891E-21   -8.031928E-20   -3.008412E-18   -7.106071E-17   -6.534588E-16   -7.105909E-17   -3.007762E-18   -8.016865E-20   -1.327441E-21
         1.052329E-22    5.239910E-24    1.261723E-25    2.093183E-27    2.689551E-29    2.838035E-31    2.536947E-33    1.944684E-35    1.275231E-37    7.052327E-40
         3.203154E-42
   6     7.931440E-40    1.379444E-37    2.053684E-35    2.658951E-33    3.012694E-31    2.971024E-29    2.498579E-27    1.721993E-25    9.055312E-24    3.094044E-22
         2.861073E-21   -2.846919E-19   -1.368822E-17   -2.627932E-16   -3.650948E-15   -1.238338E-14   -3.650891E-15   -2.627762E-16   -1.368357E-17   -2.837223E-19
         2.952464E-21    3.134719E-22    9.138976E-24    1.720822E-25    2.455263E-27    2.857845E-29    2.833869E-31    2.451702E-33    1.864781E-35    1.239937E-37
         7.090037E-40
   7     1.302649E-37    1.872830E-35    2.390595E-33    2.732200E-31    2.788843E-29    2.498579E-27    1.897129E-25    1.151864E-23    5.021057E-22    1.115389E-20
        -2.596309E-19   -2.979459E-17   -6.486837E-16   -1.134802E-14   -9.461727E-14   -8.373691E-14   -9.461690E-14   -1.134764E-14   -6.486109E-16   -2.977007E-17
        -2.560935E-19    1.138175E-20    5.094499E-22    1.163480E-23    1.895137E-25    2.453784E-27    2.683849E-29    2.576383E-31    2.214883E-33    1.712107E-35
         1.180018E-37
   8     1.617864E-35    1.983402E-33    2.226393E-31    2.289213E-29    2.125009E-27    1.721993E-25    1.151864E-23    5.781906E-22    1.701530E-20   -1.369060E-19
        -4.170086E-17   -1.201996E-15   -2.432518E-14   -2.326677E-13   -7.233257E-13    3.296644E-12   -7.233395E-13   -2.326661E-13   -2.432689E-14   -1.201624E-15
        -4.162463E-17   -1.291343E-19    1.737920E-20    5.873440E-22    1.163884E-23    1.720563E-25    2.089800E-27    2.211116E-29    2.113373E-31    1.855398E-33
         1.496764E-35
   9     1.494709E-33    1.594796E-31    1.600731E-29    1.496130E-27    1.261441E-25    9.055312E-24    5.021057E-22    1.701530E-20   -8.414918E-20   -4.826445E-17
        -1.728534E-15   -4.019994E-14   -4.430441E-13   -3.700989E-12    6.408044E-11    9.859857E-10    6.407977E-11   -3.701154E-12   -4.429977E-13   -4.022000E-14
        -1.727438E-15   -4.812403E-17   -7.371103E-20    1.739613E-20    5.100603E-22    9.148100E-24    1.261549E-25    1.476202E-27    1.556482E-29    1.530081E-31
         1.418796E-33
  10     9.666957E-32    9.035704E-30    8.150334E-28    6.916469E-26    5.195659E-24    3.094044E-22    1.115389E-20   -1.369060E-19   -4.826445E-17   -1.949061E-15
        -5.127826E-14   -6.468909E-13   -7.110179E-12    2.748270E-10    9.884441E-09    2.627099E-07    9.884450E-09    2.748240E-10   -7.110275E-12   -6.467085E-13
        -5.133119E-14   -1.947385E-15   -4.811534E-17   -1.282928E-19    1.141467E-20    3.141745E-22    5.248441E-24    6.928230E-26    8.077819E-28    8.860233E-30
         9.397083E-32
  11     3.934419E-30    3.107427E-28    2.422324E-26    1.767847E-24    1.037303E-22    2.861073E-21   -2.596309E-19   -4.170086E-17   -1.728534E-15   -5.127826E-14
        -7.319345E-13   -8.865461E-12    6.226664E-10    4.135384E-08    2.450162E-06    6.668828E-05    2.450162E-06    4.135389E-08    6.226518E-10   -8.863982E-12
        -7.316586E-13   -5.133600E-14   -1.727280E-15   -4.161073E-17   -2.553229E-19    2.974844E-21    1.056363E-22    1.788455E-24    2.430120E-26    3.088718E-28
         3.880611E-30
  12     1.419384E-28    8.272222E-27    4.085041E-25    1.020454E-23   -1.349891E-21   -2.846919E-19   -2.979459E-17   -1.201996E-15   -4.019994E-14   -6.468909E-13
        -8.865461E-12    8.127237E-10    8.141299E-08    7.842876E-06    4.499041E-04    1.188614E-02    4.499041E-04    7.842876E-06    8.141315E-08    8.126880E-10
        -8.863522E-12   -6.466906E-13   -4.022584E-14   -1.201544E-15   -2.976338E-17   -2.834257E-19   -1.319993E-21    1.067022E-23    4.133818E-25    8.295987E-27
         1.416434E-28
  13     1.366810E-26    8.071277E-25    3.879670E-23    9.359862E-22   -8.031928E-20   -1.368822E-17   -6.486837E-16   -2.432518E-14   -4.430441E-13   -7.110179E-12
         6.226664E-10    8.141299E-08    1.124167E-05    1.011811E-03    5.184807E-02     1.09966        5.184807E-02    1.011811E-03    1.124167E-05    8.141316E-08
         6.226470E-10   -7.110003E-12   -4.429890E-13   -2.432818E-14   -6.486027E-16   -1.368225E-17   -8.011915E-20    9.400883E-22    3.885356E-23    8.075817E-25
         1.366769E-26
  14     3.007391E-25    1.567345E-23    5.679187E-22   -4.924779E-21   -3.008412E-18   -2.627932E-16   -1.134802E-14   -2.326677E-13   -3.700989E-12    2.748270E-10
         4.135384E-08    7.842876E-06    1.011811E-03    7.598869E-02     2.55002         22.9133         2.55002        7.598869E-02    1.011811E-03    7.842876E-06
         4.135390E-08    2.748230E-10   -3.701158E-12   -2.326667E-13   -1.134762E-14   -2.627735E-16   -3.007619E-18   -4.905828E-21    5.682045E-22    1.567658E-23
         3.007559E-25
  15     4.144565E-24    2.082414E-22    5.876701E-21   -3.612865E-19   -7.106071E-17   -3.650948E-15   -9.461727E-14   -7.233257E-13    6.408044E-11    9.884441E-09
         2.450162E-06    4.499041E-04    5.184807E-02     2.55002         29.6709         80.2719         29.6709         2.55002        5.184807E-02    4.499041E-04
         2.450162E-06    9.884452E-09    6.407963E-11   -7.233425E-13   -9.461685E-14   -3.650883E-15   -7.105889E-17   -3.612474E-19    5.877146E-21    2.082399E-22
         4.144419E-24
  16    -9.196595E-23   -5.343460E-21   -3.032668E-19   -1.662844E-17   -6.534588E-16   -1.238338E-14   -8.373691E-14    3.296644E-12    9.859857E-10    2.627099E-07
         6.668828E-05    1.188614E-02     1.09966         22.9133         80.2719         99.6121         80.2719         22.9133         1.09966        1.188614E-02
         6.668828E-05    2.627099E-07    9.859857E-10    3.296644E-12   -8.373688E-14   -1.238338E-14   -6.534588E-16   -1.662844E-17   -3.032668E-19   -5.343460E-21
        -9.196595E-23
  17     4.144434E-24    2.082401E-22    5.877110E-21   -3.612512E-19   -7.105909E-17   -3.650891E-15   -9.461690E-14   -7.233395E-13    6.407977E-11    9.884450E-09
         2.450162E-06    4.499041E-04    5.184807E-02     2.55002         29.6709         80.2719         29.6709         2.55002        5.184807E-02    4.499041E-04
         2.450162E-06    9.884441E-09    6.408044E-11   -7.233256E-13   -9.461727E-14   -3.650947E-15   -7.106071E-17   -3.612865E-19    5.876700E-21    2.082414E-22
         4.144565E-24
  18     3.007434E-25    1.567549E-23    5.681305E-22   -4.909849E-21   -3.007762E-18   -2.627762E-16   -1.134764E-14   -2.326661E-13   -3.701154E-12    2.748240E-10
         4.135389E-08    7.842876E-06    1.011811E-03    7.598869E-02     2.55002         22.9133         2.55002        7.598869E-02    1.011811E-03    7.842876E-06
         4.135384E-08    2.748270E-10   -3.700989E-12   -2.326677E-13   -1.134802E-14   -2.627932E-16   -3.008412E-18   -4.924780E-21    5.679187E-22    1.567345E-23
         3.007390E-25
  19     1.366693E-26    8.074095E-25    3.883636E-23    9.389783E-22   -8.016865E-20   -1.368357E-17   -6.486109E-16   -2.432689E-14   -4.429977E-13   -7.110275E-12
         6.226518E-10    8.141315E-08    1.124167E-05    1.011811E-03    5.184807E-02     1.09966        5.184807E-02    1.011811E-03    1.124167E-05    8.141299E-08
         6.226664E-10   -7.110179E-12   -4.430441E-13   -2.432518E-14   -6.486837E-16   -1.368822E-17   -8.031928E-20    9.359862E-22    3.879670E-23    8.071277E-25
         1.366810E-26
  20     1.416931E-28    8.287355E-27    4.119705E-25    1.054640E-23   -1.327441E-21   -2.837223E-19   -2.977007E-17   -1.201624E-15   -4.022000E-14   -6.467085E-13
        -8.863982E-12    8.126880E-10    8.141316E-08    7.842876E-06    4.499041E-04    1.188614E-02    4.499041E-04    7.842876E-06    8.141299E-08    8.127237E-10
        -8.865461E-12   -6.468909E-13   -4.019994E-14   -1.201996E-15   -2.979459E-17   -2.846919E-19   -1.349892E-21    1.020454E-23    4.085040E-25    8.272222E-27
         1.419384E-28
  21     3.894317E-30    3.093448E-28    2.428356E-26    1.783826E-24    1.052329E-22    2.952464E-21   -2.560935E-19   -4.162463E-17   -1.727438E-15   -5.133119E-14
        -7.316586E-13   -8.863522E-12    6.226470E-10    4.135390E-08    2.450162E-06    6.668828E-05    2.450162E-06    4.135384E-08    6.226664E-10   -8.865461E-12
        -7.319345E-13   -5.127826E-14   -1.728534E-15   -4.170086E-17   -2.596309E-19    2.861073E-21    1.037303E-22    1.767847E-24    2.422324E-26    3.107427E-28
         3.934419E-30
  22     9.455184E-32    8.897758E-30    8.093537E-28    6.927036E-26    5.239910E-24    3.134719E-22    1.138175E-20   -1.291343E-19   -4.812403E-17   -1.947385E-15
        -5.133600E-14   -6.466906E-13   -7.110003E-12    2.748230E-10    9.884452E-09    2.627099E-07    9.884441E-09    2.748270E-10   -7.110179E-12   -6.468909E-13
        -5.127826E-14   -1.949061E-15   -4.826445E-17   -1.369060E-19    1.115389E-20    3.094044E-22    5.195659E-24    6.916468E-26    8.150334E-28    9.035704E-30
         9.666957E-32
  23     1.431383E-33    1.540671E-31    1.563550E-29    1.479324E-27    1.261723E-25    9.138976E-24    5.094499E-22    1.737920E-20   -7.371104E-20   -4.811534E-17
        -1.727280E-15   -4.022584E-14   -4.429890E-13   -3.701158E-12    6.407963E-11    9.859857E-10    6.408044E-11   -3.700989E-12   -4.430441E-13   -4.019994E-14
        -1.728534E-15   -4.826445E-17   -8.414917E-20    1.701530E-20    5.021057E-22    9.055312E-24    1.261441E-25    1.496130E-27    1.600731E-29    1.594796E-31
         1.494709E-33
  24     1.511612E-35    1.870812E-33    2.126397E-31    2.219468E-29    2.093183E-27    1.720822E-25    1.163480E-23    5.873440E-22    1.739613E-20   -1.282928E-19
        -4.161073E-17   -1.201544E-15   -2.432818E-14   -2.326667E-13   -7.233425E-13    3.296644E-12   -7.233256E-13   -2.326677E-13   -2.432518E-14   -1.201996E-15
        -4.170086E-17   -1.369060E-19    1.701530E-20    5.781906E-22    1.151864E-23    1.721993E-25    2.125009E-27    2.289213E-29    2.226393E-31    1.983402E-33
         1.617864E-35
  25     1.190659E-37    1.725726E-35    2.228754E-33    2.587149E-31    2.689551E-29    2.455263E-27    1.895137E-25    1.163884E-23    5.100603E-22    1.141467E-20
        -2.553229E-19   -2.976338E-17   -6.486027E-16   -1.134762E-14   -9.461685E-14   -8.373688E-14   -9.461727E-14   -1.134802E-14   -6.486837E-16   -2.979459E-17
        -2.596309E-19    1.115389E-20    5.021057E-22    1.151864E-23    1.897129E-25    2.498579E-27    2.788843E-29    2.732200E-31    2.390595E-33    1.872830E-35
         1.302649E-37
  26     7.138803E-40    1.247769E-37    1.874234E-35    2.459866E-33    2.838035E-31    2.857845E-29    2.453784E-27    1.720563E-25    9.148100E-24    3.141745E-22
         2.974844E-21   -2.834257E-19   -1.368225E-17   -2.627735E-16   -3.650883E-15   -1.238338E-14   -3.650947E-15   -2.627932E-16   -1.368822E-17   -2.846919E-19
         2.861073E-21    3.094044E-22    9.055312E-24    1.721993E-25    2.498579E-27    2.971024E-29    3.012694E-31    2.658951E-33    2.053684E-35    1.379444E-37
         7.931440E-40
  27     3.217313E-42    7.081789E-40    1.279352E-37    1.948054E-35    2.536947E-33    2.833869E-31    2.683849E-29    2.089800E-27    1.261549E-25    5.248441E-24
         1.056363E-22   -1.319993E-21   -8.011915E-20   -3.007619E-18   -7.105889E-17   -6.534588E-16   -7.106071E-17   -3.008412E-18   -8.031928E-20   -1.349892E-21
         1.037303E-22    5.195659E-24    1.261441E-25    2.125009E-27    2.788843E-29    3.012694E-31    2.752497E-33    2.146604E-35    1.423814E-37    7.920237E-40
         3.601737E-42
  28     1.041949E-44    3.087016E-42    7.032669E-40    1.287836E-37    1.944684E-35    2.451702E-33    2.576383E-31    2.211116E-29    1.476202E-27    6.928230E-26
         1.788455E-24    1.067022E-23    9.400883E-22   -4.905828E-21   -3.612474E-19   -1.662844E-17   -3.612865E-19   -4.924780E-21    9.359862E-22    1.020454E-23
         1.767847E-24    6.916468E-26    1.496130E-27    2.289213E-29    2.732200E-31    2.658951E-33    2.146604E-35    1.437947E-37    7.895797E-40    3.468006E-42
         1.166844E-44
  29     2.195699E-47    9.842120E-45    3.036591E-42    7.022853E-40    1.275231E-37    1.864781E-35    2.214883E-33    2.113373E-31    1.556482E-29    8.077819E-28
         2.430120E-26    4.133818E-25    3.885356E-23    5.682045E-22    5.877146E-21   -3.032668E-19    5.876700E-21    5.679187E-22    3.879670E-23    4.085040E-25
         2.422324E-26    8.150334E-28    1.600731E-29    2.226393E-31    2.390595E-33    2.053684E-35    1.423814E-37    7.895797E-40    3.417716E-42    1.103850E-44
         2.445264E-47
  30     2.327579E-50    2.079966E-47    9.834660E-45    3.080246E-42    7.052327E-40    1.239937E-37    1.712107E-35    1.855398E-33    1.530081E-31    8.860233E-30
         3.088718E-28    8.295987E-27    8.075817E-25    1.567658E-23    2.082399E-22   -5.343460E-21    2.082414E-22    1.567345E-23    8.071277E-25    8.272222E-27
         3.107427E-28    9.035704E-30    1.594796E-31    1.983402E-33    1.872830E-35    1.379444E-37    7.920237E-40    3.468006E-42    1.103850E-44    2.317527E-47
         2.566093E-50
  31      0.00000        2.327378E-50    2.193863E-47    1.039556E-44    3.203154E-42    7.090037E-40    1.180018E-37    1.496764E-35    1.418796E-33    9.397083E-32
         3.880611E-30    1.416434E-28    1.366769E-26    3.007559E-25    4.144419E-24   -9.196595E-23    4.144565E-24    3.007390E-25    1.366810E-26    1.419384E-28
         3.934419E-30    9.666957E-32    1.494709E-33    1.617864E-35    1.302649E-37    7.931440E-40    3.601737E-42    1.166844E-44    2.445264E-47    2.566093E-50
          0.00000    

 CONCENTRATION WILL BE SAVED ON UNIT 1030 AT END OF TIME STEP   17, STRESS PERIOD    1


  MASS BUDGET FOR ENTIRE MODEL AT END OF TIME STEP   17, STRESS PERIOD   1
  ---------------------------------------------------------------------------------------------------

     CUMULATIVE MASS      M       RATES FOR THIS TIME STEP      M/T          PACKAGE NAME    
     ------------------                 ------------------------                     ----------------

           IN:                                      IN:
           ---                                      ---
     STORAGE-AQUEOUS =       4.0142E-03       STORAGE-AQUEOUS =       8.7516E-06     MST                              
                 WEL =  3723000000.0000                   WEL =     8640000.0000     SSM_WEL-1                        
                 CHD =           0.0000                   CHD =           0.0000     SSM_CHD-1                        

            TOTAL IN =  3723000000.0040              TOTAL IN =     8640000.0000

          OUT:                                     OUT:
          ----                                     ----
     STORAGE-AQUEOUS =  3723000000.0040       STORAGE-AQUEOUS =     8640000.0000     MST                              
                 WEL =           0.0000                   WEL =           0.0000     SSM_WEL-1                        
                 CHD =       3.2337E-18                   CHD =       4.2610E-20     SSM_CHD-1                        

           TOTAL OUT =  3723000000.0040             TOTAL OUT =     8640000.0000

            IN - OUT =       5.3406E-05              IN - OUT =      -1.1548E-07

 PERCENT DISCREPANCY =           0.00     PERCENT DISCREPANCY =          -0.00




         TIME SUMMARY AT END OF TIME STEP   17 IN STRESS PERIOD    1
                    SECONDS     MINUTES      HOURS       DAYS        YEARS
                    -----------------------------------------------------------
   TIME STEP LENGTH 2.19000E+06  36500.      608.33      25.347     6.93969E-02
 STRESS PERIOD TIME 3.72300E+07 6.20500E+05  10342.      430.90      1.1797    
         TOTAL TIME 3.72300E+07 6.20500E+05  10342.      430.90      1.1797    


end timestep


start timestep kper="1" kstp="18" mode="normal"

 UBDSV1 SAVING  STORAGE-AQUEOUS ON UNIT   1029 AT TIME STEP     18, STRESS PERIOD      1
 UBDSV1 SAVING     FLOW-JA-FACE ON UNIT   1029 AT TIME STEP     18, STRESS PERIOD      1
 UBDSV06 SAVING  SOURCE-SINK MIX IN MODEL GWT_P06-MF6      PACKAGE GWT_P06-MF6     CONNECTED TO MODEL GWT_P06-MF6      PACKAGE SSM              ON UNIT   1029 AT TIME STEP     18, STRESS PERIOD      1
1
  CONCENTRATION IN LAYER   1 AT END OF TIME STEP  18 IN STRESS PERIOD    1
  ---------------------------------------------------------------------------

                1               2               3               4               5               6               7               8               9              10
               11              12              13              14              15              16              17              18              19              20
               21              22              23              24              25              26              27              28              29              30
               31
 ................................................................................................................................................................................................................................................................................................................................................................................................................................................................................................................
   1      0.00000        5.464771E-50    5.082150E-47    2.370463E-44    7.164573E-42    1.546994E-39    2.491419E-37    3.026474E-35    2.717179E-33    1.687189E-31
         6.427213E-30    2.082040E-28    1.944222E-26    4.023860E-25    5.175370E-24   -1.393864E-22    5.175276E-24    4.024222E-25    1.944570E-26    2.082970E-28
         6.388340E-30    1.659596E-31    2.624096E-33    2.857842E-35    2.302077E-37    1.405018E-39    6.436422E-42    2.120112E-44    4.550980E-47    4.922081E-50
          0.00000    
   2     5.464771E-50    4.816753E-47    2.242928E-44    6.903788E-42    1.547987E-39    2.650325E-37    3.534201E-35    3.660603E-33    2.854056E-31    1.545610E-29
         4.913994E-28    1.077382E-26    1.015618E-24    1.745583E-23    1.935234E-22   -7.956658E-21    1.935286E-22    1.746071E-23    1.016394E-24    1.083383E-26
         4.915024E-28    1.531381E-29    2.782739E-31    3.495130E-33    3.300855E-35    2.427733E-37    1.397794E-39    6.182031E-42    2.003076E-44    4.311060E-47
         4.921597E-50
   3     5.082150E-47    2.242928E-44    6.805336E-42    1.544684E-39    2.742237E-37    3.894671E-35    4.449828E-33    4.036127E-31    2.789510E-29    1.336162E-27
         3.508101E-26    3.271611E-25    3.578066E-23    3.018094E-22   -1.340709E-21   -4.398058E-19   -1.339782E-21    3.022109E-22    3.585800E-23    3.347214E-25
         3.534840E-26    1.334595E-27    2.749166E-29    3.903696E-31    4.211854E-33    3.609989E-35    2.497997E-37    1.390045E-39    6.083204E-42    2.001544E-44
         4.546929E-47
   4     2.370463E-44    6.903788E-42    1.544684E-39    2.771578E-37    4.080028E-35    4.971253E-33    4.987594E-31    4.026916E-29    2.485679E-27    1.046550E-25
         2.105119E-24   -2.155834E-23   -5.212912E-22   -4.328000E-20   -1.112306E-18   -2.232834E-17   -1.112246E-18   -4.325539E-20   -5.162127E-22   -2.094256E-23
         2.139626E-24    1.053693E-25    2.476807E-27    3.949615E-29    4.794959E-31    4.678356E-33    3.764981E-35    2.517751E-37    1.388265E-39    6.168989E-42
         2.115200E-44
   5     7.164573E-42    1.547987E-39    2.742237E-37    4.080028E-35    5.153230E-33    5.516775E-31    4.929543E-29    3.554838E-27    1.938152E-25    6.862149E-24
         7.372000E-23   -5.486555E-21   -2.326036E-19   -5.934776E-18   -1.141560E-16   -8.959636E-16   -1.141537E-16   -5.933797E-18   -2.323713E-19   -5.450597E-21
         7.639660E-23    6.960169E-24    1.951048E-25    3.535095E-27    4.818477E-29    5.284494E-31    4.836018E-33    3.759601E-35    2.490970E-37    1.392455E-39
         6.409171E-42
   6     1.546994E-39    2.650325E-37    3.894671E-35    4.971253E-33    5.516775E-31    5.259534E-29    4.193085E-27    2.664782E-25    1.231835E-23    3.171830E-22
        -3.384844E-21   -6.330872E-19   -2.278639E-17   -4.236770E-16   -5.173676E-15   -1.840928E-14   -5.173599E-15   -4.236532E-16   -2.277976E-17   -6.316732E-19
        -3.239828E-21    3.244576E-22    1.250937E-23    2.683060E-25    4.164780E-27    5.132553E-29    5.278916E-31    4.666286E-33    3.594908E-35    2.414395E-37
         1.396193E-39
   7     2.491419E-37    3.534201E-35    4.449828E-33    4.987594E-31    4.929543E-29    4.193085E-27    2.942356E-25    1.583560E-23    5.526736E-22    3.811242E-21
        -8.235075E-19   -4.830879E-17   -1.052868E-15   -1.587292E-14   -1.227754E-13   -1.064532E-13   -1.227747E-13   -1.587238E-14   -1.052747E-15   -4.827679E-17
        -8.183951E-19    4.172885E-21    5.658581E-22    1.610488E-23    2.963253E-25    4.163694E-27    4.811990E-29    4.780584E-31    4.191387E-33    3.279165E-35
         2.283985E-37
   8     3.026474E-35    3.660603E-33    4.036127E-31    4.026916E-29    3.554838E-27    2.664782E-25    1.583560E-23    6.467243E-22    9.221845E-21   -8.708704E-19
        -7.063610E-17   -1.952313E-15   -3.457945E-14   -2.851963E-13   -1.345654E-12    7.178729E-12   -1.345678E-12   -2.851919E-13   -3.458158E-14   -1.951821E-15
        -7.053866E-17   -8.596393E-19    9.800046E-21    6.631808E-22    1.611465E-23    2.684099E-25    3.532718E-27    3.940220E-29    3.886391E-31    3.472446E-33
         2.834236E-35
   9     2.717179E-33    2.854056E-31    2.789510E-29    2.485679E-27    1.938152E-25    1.231835E-23    5.526736E-22    9.221845E-21   -8.835380E-19   -8.423097E-17
        -2.797550E-15   -5.762974E-14   -5.438464E-13   -4.610641E-12    1.015987E-10    1.443458E-09    1.015980E-10   -4.610900E-12   -5.437807E-13   -5.765446E-14
        -2.796304E-15   -8.405212E-17   -8.684443E-19    9.826892E-21    5.669601E-22    1.253096E-23    1.952634E-25    2.474877E-27    2.741394E-29    2.768774E-31
         2.605615E-33
  10     1.687189E-31    1.545610E-29    1.336162E-27    1.046550E-25    6.862149E-24    3.171830E-22    3.811242E-21   -8.708704E-19   -8.423097E-17   -3.148572E-15
        -7.353653E-14   -7.974263E-13   -7.493008E-12    4.217056E-10    1.508894E-08    3.928940E-07    1.508895E-08    4.217032E-10   -7.493556E-12   -7.971478E-13
        -7.360246E-14   -3.146753E-15   -8.404124E-17   -8.584333E-19    4.224864E-21    3.257149E-22    6.979439E-24    1.055147E-25    1.333963E-27    1.527452E-29
         1.652032E-31
  11     6.427213E-30    4.913994E-28    3.508101E-26    2.105119E-24    7.372000E-23   -3.384844E-21   -8.235075E-19   -7.063610E-17   -2.797550E-15   -7.353653E-14
        -9.039444E-13   -8.391965E-12    9.550351E-10    6.362691E-08    3.659011E-06    9.550682E-05    3.659011E-06    6.362696E-08    9.550238E-10   -8.391731E-12
        -9.034857E-13   -7.360867E-14   -2.796136E-15   -7.052131E-17   -8.172998E-19   -3.204827E-21    7.710622E-23    2.149540E-24    3.542927E-26    4.915156E-28
         6.375170E-30
  12     2.082040E-28    1.077382E-26    3.271611E-25   -2.155834E-23   -5.486555E-21   -6.330872E-19   -4.830879E-17   -1.952313E-15   -5.762974E-14   -7.974263E-13
        -8.391965E-12    1.248366E-09    1.255464E-07    1.169689E-05    6.434488E-04    1.622227E-02    6.434488E-04    1.169689E-05    1.255465E-07    1.248336E-09
        -8.391372E-12   -7.971093E-13   -5.766191E-14   -1.951722E-15   -4.826836E-17   -6.312530E-19   -5.439016E-21   -2.072766E-23    3.376109E-25    1.086016E-26
         2.084007E-28
  13     1.944222E-26    1.015618E-24    3.578066E-23   -5.212912E-22   -2.326036E-19   -2.278639E-17   -1.052868E-15   -3.457945E-14   -5.438464E-13   -7.493008E-12
         9.550351E-10    1.255464E-07    1.675213E-05    1.442890E-03    7.027312E-02     1.38378        7.027312E-02    1.442890E-03    1.675213E-05    1.255465E-07
         9.550192E-10   -7.493361E-12   -5.437656E-13   -3.458324E-14   -1.052729E-15   -2.277793E-17   -2.322981E-19   -5.144368E-22    3.588854E-23    1.016762E-24
         1.944867E-26
  14     4.023860E-25    1.745583E-23    3.018094E-22   -4.328000E-20   -5.934776E-18   -4.236770E-16   -1.587292E-14   -2.851963E-13   -4.610641E-12    4.217056E-10
         6.362691E-08    1.169689E-05    1.442890E-03    0.102494         3.16202         25.6163         3.16202        0.102494        1.442890E-03    1.169689E-05
         6.362697E-08    4.217023E-10   -4.610920E-12   -2.851920E-13   -1.587236E-14   -4.236496E-16   -5.933593E-18   -4.324928E-20    3.023324E-22    1.746264E-23
         4.024469E-25
  15     5.175370E-24    1.935234E-22   -1.340709E-21   -1.112306E-18   -1.141560E-16   -5.173676E-15   -1.227754E-13   -1.345654E-12    1.015987E-10    1.508894E-08
         3.659011E-06    6.434488E-04    7.027312E-02     3.16202         32.9149         82.3769         32.9149         3.16202        7.027312E-02    6.434488E-04
         3.659011E-06    1.508895E-08    1.015978E-10   -1.345683E-12   -1.227746E-13   -5.173588E-15   -1.141534E-16   -1.112240E-18   -1.339691E-21    1.935289E-22
         5.175263E-24
  16    -1.393864E-22   -7.956658E-21   -4.398058E-19   -2.232834E-17   -8.959636E-16   -1.840928E-14   -1.064532E-13    7.178729E-12    1.443458E-09    3.928940E-07
         9.550682E-05    1.622227E-02     1.38378         25.6163         82.3769         99.7202         82.3769         25.6163         1.38378        1.622227E-02
         9.550682E-05    3.928940E-07    1.443458E-09    7.178729E-12   -1.064531E-13   -1.840928E-14   -8.959636E-16   -2.232833E-17   -4.398058E-19   -7.956658E-21
        -1.393864E-22
  17     5.175276E-24    1.935286E-22   -1.339782E-21   -1.112246E-18   -1.141537E-16   -5.173599E-15   -1.227747E-13   -1.345678E-12    1.015980E-10    1.508895E-08
         3.659011E-06    6.434488E-04    7.027312E-02     3.16202         32.9149         82.3769         32.9149         3.16202        7.027312E-02    6.434488E-04
         3.659011E-06    1.508894E-08    1.015987E-10   -1.345654E-12   -1.227754E-13   -5.173676E-15   -1.141560E-16   -1.112306E-18   -1.340709E-21    1.935234E-22
         5.175370E-24
  18     4.024222E-25    1.746071E-23    3.022109E-22   -4.325539E-20   -5.933797E-18   -4.236532E-16   -1.587238E-14   -2.851919E-13   -4.610900E-12    4.217032E-10
         6.362696E-08    1.169689E-05    1.442890E-03    0.102494         3.16202         25.6163         3.16202        0.102494        1.442890E-03    1.169689E-05
         6.362691E-08    4.217056E-10   -4.610641E-12   -2.851963E-13   -1.587292E-14   -4.236770E-16   -5.934776E-18   -4.328000E-20    3.018093E-22    1.745582E-23
         4.023860E-25
  19     1.944570E-26    1.016394E-24    3.585800E-23   -5.162127E-22   -2.323713E-19   -2.277976E-17   -1.052747E-15   -3.458158E-14   -5.437807E-13   -7.493556E-12
         9.550238E-10    1.255465E-07    1.675213E-05    1.442890E-03    7.027312E-02     1.38378        7.027312E-02    1.442890E-03    1.675213E-05    1.255464E-07
         9.550351E-10   -7.493007E-12   -5.438464E-13   -3.457945E-14   -1.052868E-15   -2.278639E-17   -2.326036E-19   -5.212913E-22    3.578066E-23    1.015618E-24
         1.944222E-26
  20     2.082970E-28    1.083383E-26    3.347214E-25   -2.094256E-23   -5.450597E-21   -6.316732E-19   -4.827679E-17   -1.951821E-15   -5.765446E-14   -7.971478E-13
        -8.391731E-12    1.248336E-09    1.255465E-07    1.169689E-05    6.434488E-04    1.622227E-02    6.434488E-04    1.169689E-05    1.255464E-07    1.248366E-09
        -8.391965E-12   -7.974263E-13   -5.762974E-14   -1.952313E-15   -4.830879E-17   -6.330872E-19   -5.486555E-21   -2.155834E-23    3.271611E-25    1.077382E-26
         2.082040E-28
  21     6.388340E-30    4.915024E-28    3.534840E-26    2.139626E-24    7.639660E-23   -3.239828E-21   -8.183951E-19   -7.053866E-17   -2.796304E-15   -7.360246E-14
        -9.034857E-13   -8.391372E-12    9.550192E-10    6.362697E-08    3.659011E-06    9.550682E-05    3.659011E-06    6.362691E-08    9.550351E-10   -8.391965E-12
        -9.039444E-13   -7.353653E-14   -2.797550E-15   -7.063610E-17   -8.235075E-19   -3.384844E-21    7.372000E-23    2.105118E-24    3.508101E-26    4.913993E-28
         6.427213E-30
  22     1.659596E-31    1.531381E-29    1.334595E-27    1.053693E-25    6.960169E-24    3.244576E-22    4.172885E-21   -8.596393E-19   -8.405212E-17   -3.146753E-15
        -7.360867E-14   -7.971093E-13   -7.493361E-12    4.217023E-10    1.508895E-08    3.928940E-07    1.508894E-08    4.217056E-10   -7.493007E-12   -7.974263E-13
        -7.353653E-14   -3.148572E-15   -8.423097E-17   -8.708704E-19    3.811242E-21    3.171830E-22    6.862149E-24    1.046550E-25    1.336162E-27    1.545610E-29
         1.687189E-31
  23     2.624096E-33    2.782739E-31    2.749166E-29    2.476807E-27    1.951048E-25    1.250937E-23    5.658581E-22    9.800046E-21   -8.684443E-19   -8.404124E-17
        -2.796136E-15   -5.766191E-14   -5.437656E-13   -4.610920E-12    1.015978E-10    1.443458E-09    1.015987E-10   -4.610641E-12   -5.438464E-13   -5.762974E-14
        -2.797550E-15   -8.423097E-17   -8.835380E-19    9.221845E-21    5.526736E-22    1.231835E-23    1.938152E-25    2.485679E-27    2.789510E-29    2.854056E-31
         2.717179E-33
  24     2.857842E-35    3.495130E-33    3.903696E-31    3.949615E-29    3.535095E-27    2.683060E-25    1.610488E-23    6.631808E-22    9.826892E-21   -8.584333E-19
        -7.052131E-17   -1.951722E-15   -3.458324E-14   -2.851920E-13   -1.345683E-12    7.178729E-12   -1.345654E-12   -2.851963E-13   -3.457945E-14   -1.952313E-15
        -7.063610E-17   -8.708704E-19    9.221845E-21    6.467243E-22    1.583560E-23    2.664782E-25    3.554838E-27    4.026916E-29    4.036127E-31    3.660603E-33
         3.026474E-35
  25     2.302077E-37    3.300855E-35    4.211854E-33    4.794959E-31    4.818477E-29    4.164780E-27    2.963253E-25    1.611465E-23    5.669601E-22    4.224864E-21
        -8.172998E-19   -4.826836E-17   -1.052729E-15   -1.587236E-14   -1.227746E-13   -1.064531E-13   -1.227754E-13   -1.587292E-14   -1.052868E-15   -4.830879E-17
        -8.235075E-19    3.811242E-21    5.526736E-22    1.583560E-23    2.942356E-25    4.193085E-27    4.929543E-29    4.987594E-31    4.449828E-33    3.534201E-35
         2.491419E-37
  26     1.405018E-39    2.427733E-37    3.609989E-35    4.678356E-33    5.284494E-31    5.132553E-29    4.163694E-27    2.684099E-25    1.253096E-23    3.257149E-22
        -3.204827E-21   -6.312530E-19   -2.277793E-17   -4.236496E-16   -5.173588E-15   -1.840928E-14   -5.173676E-15   -4.236770E-16   -2.278639E-17   -6.330872E-19
        -3.384844E-21    3.171830E-22    1.231835E-23    2.664782E-25    4.193085E-27    5.259534E-29    5.516775E-31    4.971253E-33    3.894671E-35    2.650325E-37
         1.546994E-39
  27     6.436422E-42    1.397794E-39    2.497997E-37    3.764981E-35    4.836018E-33    5.278916E-31    4.811990E-29    3.532718E-27    1.952634E-25    6.979439E-24
         7.710622E-23   -5.439016E-21   -2.322981E-19   -5.933593E-18   -1.141534E-16   -8.959636E-16   -1.141560E-16   -5.934776E-18   -2.326036E-19   -5.486555E-21
         7.372000E-23    6.862149E-24    1.938152E-25    3.554838E-27    4.929543E-29    5.516775E-31    5.153230E-33    4.080028E-35    2.742237E-37    1.547987E-39
         7.164573E-42
  28     2.120112E-44    6.182031E-42    1.390045E-39    2.517751E-37    3.759601E-35    4.666286E-33    4.780584E-31    3.940220E-29    2.474877E-27    1.055147E-25
         2.149540E-24   -2.072766E-23   -5.144368E-22   -4.324928E-20   -1.112240E-18   -2.232833E-17   -1.112306E-18   -4.328000E-20   -5.212913E-22   -2.155834E-23
         2.105118E-24    1.046550E-25    2.485679E-27    4.026916E-29    4.987594E-31    4.971253E-33    4.080028E-35    2.771578E-37    1.544684E-39    6.903788E-42
         2.370463E-44
  29     4.550980E-47    2.003076E-44    6.083204E-42    1.388265E-39    2.490970E-37    3.594908E-35    4.191387E-33    3.886391E-31    2.741394E-29    1.333963E-27
         3.542927E-26    3.376109E-25    3.588854E-23    3.023324E-22   -1.339691E-21   -4.398058E-19   -1.340709E-21    3.018093E-22    3.578066E-23    3.271611E-25
         3.508101E-26    1.336162E-27    2.789510E-29    4.036127E-31    4.449828E-33    3.894671E-35    2.742237E-37    1.544684E-39    6.805336E-42    2.242928E-44
         5.082150E-47
  30     4.922081E-50    4.311060E-47    2.001544E-44    6.168989E-42    1.392455E-39    2.414395E-37    3.279165E-35    3.472446E-33    2.768774E-31    1.527452E-29
         4.915156E-28    1.086016E-26    1.016762E-24    1.746264E-23    1.935289E-22   -7.956658E-21    1.935234E-22    1.745582E-23    1.015618E-24    1.077382E-26
         4.913993E-28    1.545610E-29    2.854056E-31    3.660603E-33    3.534201E-35    2.650325E-37    1.547987E-39    6.903788E-42    2.242928E-44    4.816753E-47
         5.464771E-50
  31      0.00000        4.921597E-50    4.546929E-47    2.115200E-44    6.409171E-42    1.396193E-39    2.283985E-37    2.834236E-35    2.605615E-33    1.652032E-31
         6.375170E-30    2.084007E-28    1.944867E-26    4.024469E-25    5.175263E-24   -1.393864E-22    5.175370E-24    4.023860E-25    1.944222E-26    2.082040E-28
         6.427213E-30    1.687189E-31    2.717179E-33    3.026474E-35    2.491419E-37    1.546994E-39    7.164573E-42    2.370463E-44    5.082150E-47    5.464771E-50
          0.00000    

 CONCENTRATION WILL BE SAVED ON UNIT 1030 AT END OF TIME STEP   18, STRESS PERIOD    1


  MASS BUDGET FOR ENTIRE MODEL AT END OF TIME STEP   18, STRESS PERIOD   1
  ---------------------------------------------------------------------------------------------------

     CUMULATIVE MASS      M       RATES FOR THIS TIME STEP      M/T          PACKAGE NAME    
     ------------------                 ------------------------                     ----------------

           IN:                                      IN:
           ---                                      ---
     STORAGE-AQUEOUS =       4.1234E-03       STORAGE-AQUEOUS =       4.3068E-06     MST                              
                 WEL =  3942000000.0000                   WEL =     8640000.0000     SSM_WEL-1                        
                 CHD =           0.0000                   CHD =           0.0000     SSM_CHD-1                        

            TOTAL IN =  3942000000.0041              TOTAL IN =     8640000.0000

          OUT:                                     OUT:
          ----                                     ----
     STORAGE-AQUEOUS =  3942000000.0041       STORAGE-AQUEOUS =     8640000.0000     MST                              
                 WEL =           0.0000                   WEL =           0.0000     SSM_WEL-1                        
                 CHD =       4.5892E-18                   CHD =       5.3480E-20     SSM_CHD-1                        

           TOTAL OUT =  3942000000.0041             TOTAL OUT =     8640000.0000

            IN - OUT =       4.9591E-05              IN - OUT =      -1.4715E-07

 PERCENT DISCREPANCY =           0.00     PERCENT DISCREPANCY =          -0.00




         TIME SUMMARY AT END OF TIME STEP   18 IN STRESS PERIOD    1
                    SECONDS     MINUTES      HOURS       DAYS        YEARS
                    -----------------------------------------------------------
   TIME STEP LENGTH 2.19000E+06  36500.      608.33      25.347     6.93969E-02
 STRESS PERIOD TIME 3.94200E+07 6.57000E+05  10950.      456.25      1.2491    
         TOTAL TIME 3.94200E+07 6.57000E+05  10950.      456.25      1.2491    


end timestep


start timestep kper="1" kstp="19" mode="normal"

 UBDSV1 SAVING  STORAGE-AQUEOUS ON UNIT   1029 AT TIME STEP     19, STRESS PERIOD      1
 UBDSV1 SAVING     FLOW-JA-FACE ON UNIT   1029 AT TIME STEP     19, STRESS PERIOD      1
 UBDSV06 SAVING  SOURCE-SINK MIX IN MODEL GWT_P06-MF6      PACKAGE GWT_P06-MF6     CONNECTED TO MODEL GWT_P06-MF6      PACKAGE SSM              ON UNIT   1029 AT TIME STEP     19, STRESS PERIOD      1
1
  CONCENTRATION IN LAYER   1 AT END OF TIME STEP  19 IN STRESS PERIOD    1
  ---------------------------------------------------------------------------

                1               2               3               4               5               6               7               8               9              10
               11              12              13              14              15              16              17              18              19              20
               21              22              23              24              25              26              27              28              29              30
               31
 ................................................................................................................................................................................................................................................................................................................................................................................................................................................................................................................
   1      0.00000        1.136318E-49    1.034155E-46    4.727314E-44    1.402010E-41    2.971475E-39    4.690251E-37    5.559743E-35    4.830795E-33    2.860723E-31
         1.002175E-29    2.761701E-28    2.573293E-26    4.907215E-25    5.565370E-24   -2.088159E-22    5.565373E-24    4.908173E-25    2.574606E-26    2.770321E-28
         1.000093E-29    2.828681E-31    4.702083E-33    5.304607E-35    4.383902E-37    2.728066E-39    1.270277E-41    4.250016E-44    9.273502E-47    1.020887E-49
          0.00000    
   2     1.136318E-49    9.801700E-47    4.473953E-44    1.352062E-41    2.979461E-39    5.010562E-37    6.542190E-35    6.590613E-33    4.942099E-31    2.523484E-29
         7.119719E-28    1.053038E-26    1.106601E-24    1.523014E-23    9.317326E-23   -1.165056E-20    9.318895E-23    1.523966E-23    1.108221E-24    1.067065E-26
         7.154148E-28    2.513348E-29    4.856409E-31    6.360876E-33    6.188988E-35    4.650385E-37    2.721939E-39    1.221470E-41    4.016615E-44    8.784790E-47
         1.020780E-49
   3     1.034155E-46    4.473953E-44    1.333123E-41    2.975921E-39    5.196048E-37    7.240458E-35    8.067984E-33    7.063596E-31    4.636355E-29    2.044140E-27
         4.342435E-26   -1.993978E-25    1.545734E-23   -3.690419E-22   -1.526400E-20   -6.221768E-19   -1.526239E-20   -3.683587E-22    1.558933E-23   -1.854642E-25
         4.404811E-26    2.051886E-27    4.601803E-29    6.902072E-31    7.736813E-33    6.809330E-35    4.800762E-37    2.710739E-39    1.202447E-41    4.013645E-44
         9.265161E-47
   4     4.727314E-44    1.352062E-41    2.975921E-39    5.255373E-37    7.599817E-35    9.046193E-33    8.778454E-31    6.751712E-29    3.875749E-27    1.436362E-25
         1.745681E-24   -9.933216E-23   -3.409593E-21   -1.089262E-19   -2.187717E-18   -2.986550E-17   -2.187629E-18   -1.088893E-19   -3.401782E-21   -9.833222E-23
         1.807869E-24    1.453781E-25    3.885504E-27    6.680996E-29    8.541832E-31    8.638045E-33    7.122541E-35    4.844512E-37    2.707659E-39    1.219081E-41
         4.240493E-44
   5     1.402010E-41    2.979461E-39    5.196048E-37    7.599817E-35    9.387945E-33    9.734533E-31    8.301479E-29    5.591585E-27    2.742311E-25    7.777712E-24
        -3.631315E-23   -1.296734E-20   -4.595801E-19   -1.015858E-17   -1.644885E-16   -1.185059E-15   -1.644855E-16   -1.015723E-17   -4.592517E-19   -1.291404E-20
        -3.205508E-23    7.953767E-24    2.776223E-25    5.600882E-27    8.197163E-29    9.448321E-31    8.945684E-33    7.114344E-35    4.789314E-37    2.712706E-39
         1.265290E-41
   6     2.971475E-39    5.010562E-37    7.240458E-35    9.046193E-33    9.734533E-31    8.869288E-29    6.620364E-27    3.816227E-25    1.490257E-23    2.137831E-22
        -1.548279E-20   -1.137717E-18   -3.380840E-17   -6.137410E-16   -6.751242E-15   -2.572794E-14   -6.751144E-15   -6.137110E-16   -3.379945E-17   -1.135776E-18
        -1.527197E-20    2.252306E-22    1.524612E-23    3.866620E-25    6.628534E-27    8.749042E-29    9.441362E-31    8.621124E-33    6.786376E-35    4.628675E-37
         2.712819E-39
   7     4.690251E-37    6.542190E-35    8.067984E-33    8.778454E-31    8.301479E-29    6.620364E-27    4.228234E-25    1.955007E-23    4.698095E-22   -1.183203E-20
        -1.647853E-18   -7.002937E-17   -1.500889E-15   -2.109071E-14   -1.414047E-13   -1.491723E-13   -1.414040E-13   -2.109007E-14   -1.500726E-15   -6.998780E-17
        -1.640956E-18   -1.131251E-20    4.904168E-22    2.003439E-23    4.286794E-25    6.628426E-27    8.190770E-29    8.523965E-31    7.708185E-33    6.156028E-35
         4.354496E-37
   8     5.559743E-35    6.590613E-33    7.063596E-31    6.751712E-29    5.591585E-27    3.816227E-25    1.955007E-23    5.736617E-22   -8.409738E-21   -1.956621E-18
        -1.043230E-16   -2.739459E-15   -4.626106E-14   -3.391922E-13   -1.925008E-12    1.244876E-11   -1.925042E-12   -3.391856E-13   -4.626376E-14   -2.738905E-15
        -1.041982E-16   -1.941608E-18   -7.584138E-21    5.993179E-22    2.005198E-23    3.869753E-25    5.600959E-27    6.671970E-29    6.880743E-31    6.329268E-33
         5.268812E-35
   9     4.830795E-33    4.942099E-31    4.636355E-29    3.875749E-27    2.742311E-25    1.490257E-23    4.698095E-22   -8.409738E-21   -2.071375E-18   -1.260151E-16
        -3.886111E-15   -7.665137E-14   -6.643462E-13   -4.888222E-12    1.503378E-10    2.096439E-09    1.503371E-10   -4.888569E-12   -6.642613E-13   -7.668085E-14
        -3.884910E-15   -1.257865E-16   -2.051259E-18   -7.546074E-21    4.921288E-22    1.528496E-23    2.780671E-25    3.886366E-27    4.594764E-29    4.839464E-31
         4.676474E-33
  10     2.860723E-31    2.523484E-29    2.044140E-27    1.436362E-25    7.777712E-24    2.137831E-22   -1.183203E-20   -1.956621E-18   -1.260151E-16   -4.358843E-15
        -9.745854E-14   -9.880148E-13   -6.209794E-12    6.211732E-10    2.275333E-08    5.771879E-07    2.275334E-08    6.211716E-10   -6.210813E-12   -9.876285E-13
        -9.753743E-14   -4.357186E-15   -1.257727E-16   -1.940008E-18   -1.123844E-20    2.271942E-22    7.988239E-24    1.457429E-25    2.053348E-27    2.510290E-29
         2.819797E-31
  11     1.002175E-29    7.119719E-28    4.342435E-26    1.745681E-24   -3.631315E-23   -1.548279E-20   -1.647853E-18   -1.043230E-16   -3.886111E-15   -9.745854E-14
        -1.124701E-12   -5.298530E-12    1.419971E-09    9.646219E-08    5.368760E-06    1.345920E-04    5.368760E-06    9.646224E-08    1.419964E-09   -5.299759E-12
        -1.124032E-12   -9.754503E-14   -3.884758E-15   -1.041764E-16   -1.639496E-18   -1.522168E-20   -3.094057E-23    1.825488E-24    4.423471E-26    7.164685E-28
         9.993609E-30
  12     2.761701E-28    1.053038E-26   -1.993978E-25   -9.933216E-23   -1.296734E-20   -1.137717E-18   -7.002937E-17   -2.739459E-15   -7.665137E-14   -9.880148E-13
        -5.298530E-12    1.863062E-09    1.905800E-07    1.714140E-05    9.056474E-04    2.180823E-02    9.056474E-04    1.714140E-05    1.905802E-07    1.863041E-09
        -5.299546E-12   -9.875649E-13   -7.668987E-14   -2.738803E-15   -6.997726E-17   -1.135211E-18   -1.289722E-20   -9.799220E-23   -1.803381E-25    1.072726E-26
         2.774534E-28
  13     2.573293E-26    1.106601E-24    1.545734E-23   -3.409593E-21   -4.595801E-19   -3.380840E-17   -1.500889E-15   -4.626106E-14   -6.643462E-13   -6.209794E-12
         1.419971E-09    1.905800E-07    2.452994E-05    2.024971E-03    9.379815E-02     1.71538        9.379815E-02    2.024971E-03    2.452994E-05    1.905802E-07
         1.419960E-09   -6.210718E-12   -6.642388E-13   -4.626579E-14   -1.500700E-15   -3.379711E-17   -4.591518E-19   -3.399158E-21    1.563854E-23    1.108909E-24
         2.575319E-26
  14     4.907215E-25    1.523014E-23   -3.690419E-22   -1.089262E-19   -1.015858E-17   -6.137410E-16   -2.109071E-14   -3.391922E-13   -4.888222E-12    6.211732E-10
         9.646219E-08    1.714140E-05    2.024971E-03    0.136156         3.86350         28.3478         3.86350        0.136156        2.024971E-03    1.714140E-05
         9.646225E-08    6.211708E-10   -4.888604E-12   -3.391852E-13   -2.109005E-14   -6.137064E-16   -1.015696E-17   -1.088806E-19   -3.681707E-22    1.524285E-23
         4.908616E-25
  15     5.565370E-24    9.317326E-23   -1.526400E-20   -2.187717E-18   -1.644885E-16   -6.751242E-15   -1.414047E-13   -1.925008E-12    1.503378E-10    2.275333E-08
         5.368760E-06    9.056474E-04    9.379815E-02     3.86350         36.1491         84.2251         36.1491         3.86350        9.379815E-02    9.056474E-04
         5.368760E-06    2.275334E-08    1.503370E-10   -1.925048E-12   -1.414038E-13   -6.751130E-15   -1.644851E-16   -2.187619E-18   -1.526222E-20    9.319037E-23
         5.565369E-24
  16    -2.088159E-22   -1.165056E-20   -6.221768E-19   -2.986550E-17   -1.185059E-15   -2.572794E-14   -1.491723E-13    1.244876E-11    2.096439E-09    5.771879E-07
         1.345920E-04    2.180823E-02     1.71538         28.3478         84.2251         99.7981         84.2251         28.3478         1.71538        2.180823E-02
         1.345920E-04    5.771879E-07    2.096439E-09    1.244876E-11   -1.491722E-13   -2.572794E-14   -1.185059E-15   -2.986550E-17   -6.221768E-19   -1.165056E-20
        -2.088159E-22
  17     5.565373E-24    9.318895E-23   -1.526239E-20   -2.187629E-18   -1.644855E-16   -6.751144E-15   -1.414040E-13   -1.925042E-12    1.503371E-10    2.275334E-08
         5.368760E-06    9.056474E-04    9.379815E-02     3.86350         36.1491         84.2251         36.1491         3.86350        9.379815E-02    9.056474E-04
         5.368760E-06    2.275333E-08    1.503378E-10   -1.925008E-12   -1.414047E-13   -6.751242E-15   -1.644885E-16   -2.187717E-18   -1.526400E-20    9.317325E-23
         5.565369E-24
  18     4.908173E-25    1.523966E-23   -3.683587E-22   -1.088893E-19   -1.015723E-17   -6.137110E-16   -2.109007E-14   -3.391856E-13   -4.888569E-12    6.211716E-10
         9.646224E-08    1.714140E-05    2.024971E-03    0.136156         3.86350         28.3478         3.86350        0.136156        2.024971E-03    1.714140E-05
         9.646219E-08    6.211732E-10   -4.888222E-12   -3.391922E-13   -2.109071E-14   -6.137410E-16   -1.015858E-17   -1.089262E-19   -3.690420E-22    1.523013E-23
         4.907215E-25
  19     2.574606E-26    1.108221E-24    1.558933E-23   -3.401782E-21   -4.592517E-19   -3.379945E-17   -1.500726E-15   -4.626376E-14   -6.642613E-13   -6.210813E-12
         1.419964E-09    1.905802E-07    2.452994E-05    2.024971E-03    9.379815E-02     1.71538        9.379815E-02    2.024971E-03    2.452994E-05    1.905800E-07
         1.419971E-09   -6.209794E-12   -6.643462E-13   -4.626106E-14   -1.500889E-15   -3.380840E-17   -4.595801E-19   -3.409593E-21    1.545734E-23    1.106601E-24
         2.573293E-26
  20     2.770321E-28    1.067065E-26   -1.854642E-25   -9.833222E-23   -1.291404E-20   -1.135776E-18   -6.998780E-17   -2.738905E-15   -7.668085E-14   -9.876285E-13
        -5.299759E-12    1.863041E-09    1.905802E-07    1.714140E-05    9.056474E-04    2.180823E-02    9.056474E-04    1.714140E-05    1.905800E-07    1.863062E-09
        -5.298530E-12   -9.880148E-13   -7.665137E-14   -2.739459E-15   -7.002937E-17   -1.137717E-18   -1.296734E-20   -9.933217E-23   -1.993979E-25    1.053038E-26
         2.761701E-28
  21     1.000093E-29    7.154148E-28    4.404811E-26    1.807869E-24   -3.205508E-23   -1.527197E-20   -1.640956E-18   -1.041982E-16   -3.884910E-15   -9.753743E-14
        -1.124032E-12   -5.299546E-12    1.419960E-09    9.646225E-08    5.368760E-06    1.345920E-04    5.368760E-06    9.646219E-08    1.419971E-09   -5.298530E-12
        -1.124701E-12   -9.745854E-14   -3.886111E-15   -1.043230E-16   -1.647853E-18   -1.548279E-20   -3.631315E-23    1.745681E-24    4.342435E-26    7.119719E-28
         1.002175E-29
  22     2.828681E-31    2.513348E-29    2.051886E-27    1.453781E-25    7.953767E-24    2.252306E-22   -1.131251E-20   -1.941608E-18   -1.257865E-16   -4.357186E-15
        -9.754503E-14   -9.875649E-13   -6.210718E-12    6.211708E-10    2.275334E-08    5.771879E-07    2.275333E-08    6.211732E-10   -6.209794E-12   -9.880148E-13
        -9.745854E-14   -4.358843E-15   -1.260151E-16   -1.956621E-18   -1.183203E-20    2.137831E-22    7.777712E-24    1.436362E-25    2.044140E-27    2.523484E-29
         2.860723E-31
  23     4.702083E-33    4.856409E-31    4.601803E-29    3.885504E-27    2.776223E-25    1.524612E-23    4.904168E-22   -7.584138E-21   -2.051259E-18   -1.257727E-16
        -3.884758E-15   -7.668987E-14   -6.642388E-13   -4.888604E-12    1.503370E-10    2.096439E-09    1.503378E-10   -4.888222E-12   -6.643462E-13   -7.665137E-14
        -3.886111E-15   -1.260151E-16   -2.071375E-18   -8.409738E-21    4.698095E-22    1.490257E-23    2.742311E-25    3.875749E-27    4.636355E-29    4.942099E-31
         4.830795E-33
  24     5.304607E-35    6.360876E-33    6.902072E-31    6.680996E-29    5.600882E-27    3.866620E-25    2.003439E-23    5.993179E-22   -7.546074E-21   -1.940008E-18
        -1.041764E-16   -2.738803E-15   -4.626579E-14   -3.391852E-13   -1.925048E-12    1.244876E-11   -1.925008E-12   -3.391922E-13   -4.626106E-14   -2.739459E-15
        -1.043230E-16   -1.956621E-18   -8.409738E-21    5.736617E-22    1.955007E-23    3.816227E-25    5.591585E-27    6.751712E-29    7.063596E-31    6.590613E-33
         5.559743E-35
  25     4.383902E-37    6.188988E-35    7.736813E-33    8.541832E-31    8.197163E-29    6.628534E-27    4.286794E-25    2.005198E-23    4.921288E-22   -1.123844E-20
        -1.639496E-18   -6.997726E-17   -1.500700E-15   -2.109005E-14   -1.414038E-13   -1.491722E-13   -1.414047E-13   -2.109071E-14   -1.500889E-15   -7.002937E-17
        -1.647853E-18   -1.183203E-20    4.698095E-22    1.955007E-23    4.228234E-25    6.620364E-27    8.301479E-29    8.778454E-31    8.067984E-33    6.542190E-35
         4.690251E-37
  26     2.728066E-39    4.650385E-37    6.809330E-35    8.638045E-33    9.448321E-31    8.749042E-29    6.628426E-27    3.869753E-25    1.528496E-23    2.271942E-22
        -1.522168E-20   -1.135211E-18   -3.379711E-17   -6.137064E-16   -6.751130E-15   -2.572794E-14   -6.751242E-15   -6.137410E-16   -3.380840E-17   -1.137717E-18
        -1.548279E-20    2.137831E-22    1.490257E-23    3.816227E-25    6.620364E-27    8.869289E-29    9.734533E-31    9.046193E-33    7.240458E-35    5.010562E-37
         2.971475E-39
  27     1.270277E-41    2.721939E-39    4.800762E-37    7.122541E-35    8.945684E-33    9.441362E-31    8.190770E-29    5.600959E-27    2.780671E-25    7.988239E-24
        -3.094057E-23   -1.289722E-20   -4.591518E-19   -1.015696E-17   -1.644851E-16   -1.185059E-15   -1.644885E-16   -1.015858E-17   -4.595801E-19   -1.296734E-20
        -3.631315E-23    7.777712E-24    2.742311E-25    5.591585E-27    8.301479E-29    9.734533E-31    9.387945E-33    7.599817E-35    5.196048E-37    2.979461E-39
         1.402010E-41
  28     4.250016E-44    1.221470E-41    2.710739E-39    4.844512E-37    7.114344E-35    8.621124E-33    8.523965E-31    6.671970E-29    3.886366E-27    1.457429E-25
         1.825488E-24   -9.799220E-23   -3.399158E-21   -1.088806E-19   -2.187619E-18   -2.986550E-17   -2.187717E-18   -1.089262E-19   -3.409593E-21   -9.933217E-23
         1.745681E-24    1.436362E-25    3.875749E-27    6.751712E-29    8.778454E-31    9.046193E-33    7.599817E-35    5.255373E-37    2.975921E-39    1.352062E-41
         4.727314E-44
  29     9.273502E-47    4.016615E-44    1.202447E-41    2.707659E-39    4.789314E-37    6.786376E-35    7.708185E-33    6.880743E-31    4.594764E-29    2.053348E-27
         4.423471E-26   -1.803381E-25    1.563854E-23   -3.681707E-22   -1.526222E-20   -6.221768E-19   -1.526400E-20   -3.690420E-22    1.545734E-23   -1.993979E-25
         4.342435E-26    2.044140E-27    4.636355E-29    7.063596E-31    8.067984E-33    7.240458E-35    5.196048E-37    2.975921E-39    1.333123E-41    4.473953E-44
         1.034155E-46
  30     1.020887E-49    8.784790E-47    4.013645E-44    1.219081E-41    2.712706E-39    4.628675E-37    6.156028E-35    6.329268E-33    4.839464E-31    2.510290E-29
         7.164685E-28    1.072726E-26    1.108909E-24    1.524285E-23    9.319037E-23   -1.165056E-20    9.317325E-23    1.523013E-23    1.106601E-24    1.053038E-26
         7.119719E-28    2.523484E-29    4.942099E-31    6.590613E-33    6.542190E-35    5.010562E-37    2.979461E-39    1.352062E-41    4.473953E-44    9.801700E-47
         1.136318E-49
  31      0.00000        1.020780E-49    9.265161E-47    4.240493E-44    1.265290E-41    2.712819E-39    4.354496E-37    5.268812E-35    4.676474E-33    2.819797E-31
         9.993609E-30    2.774534E-28    2.575319E-26    4.908616E-25    5.565369E-24   -2.088159E-22    5.565369E-24    4.907215E-25    2.573293E-26    2.761701E-28
         1.002175E-29    2.860723E-31    4.830795E-33    5.559743E-35    4.690251E-37    2.971475E-39    1.402010E-41    4.727314E-44    1.034155E-46    1.136318E-49
          0.00000    

 CONCENTRATION WILL BE SAVED ON UNIT 1030 AT END OF TIME STEP   19, STRESS PERIOD    1


  MASS BUDGET FOR ENTIRE MODEL AT END OF TIME STEP   19, STRESS PERIOD   1
  ---------------------------------------------------------------------------------------------------

     CUMULATIVE MASS      M       RATES FOR THIS TIME STEP      M/T          PACKAGE NAME    
     ------------------                 ------------------------                     ----------------

           IN:                                      IN:
           ---                                      ---
     STORAGE-AQUEOUS =       4.1887E-03       STORAGE-AQUEOUS =       2.5784E-06     MST                              
                 WEL =  4161000000.0000                   WEL =     8640000.0000     SSM_WEL-1                        
                 CHD =           0.0000                   CHD =           0.0000     SSM_CHD-1                        

            TOTAL IN =  4161000000.0042              TOTAL IN =     8640000.0000

          OUT:                                     OUT:
          ----                                     ----
     STORAGE-AQUEOUS =  4161000000.0041       STORAGE-AQUEOUS =     8640000.0000     MST                              
                 WEL =           0.0000                   WEL =           0.0000     SSM_WEL-1                        
                 CHD =       6.0619E-18                   CHD =       5.8098E-20     SSM_CHD-1                        

           TOTAL OUT =  4161000000.0041             TOTAL OUT =     8640000.0000

            IN - OUT =       4.7684E-05              IN - OUT =      -8.1956E-08

 PERCENT DISCREPANCY =           0.00     PERCENT DISCREPANCY =          -0.00




         TIME SUMMARY AT END OF TIME STEP   19 IN STRESS PERIOD    1
                    SECONDS     MINUTES      HOURS       DAYS        YEARS
                    -----------------------------------------------------------
   TIME STEP LENGTH 2.19000E+06  36500.      608.33      25.347     6.93969E-02
 STRESS PERIOD TIME 4.16100E+07 6.93500E+05  11558.      481.60      1.3185    
         TOTAL TIME 4.16100E+07 6.93500E+05  11558.      481.60      1.3185    


end timestep


start timestep kper="1" kstp="20" mode="normal"

 UBDSV1 SAVING  STORAGE-AQUEOUS ON UNIT   1029 AT TIME STEP     20, STRESS PERIOD      1
 UBDSV1 SAVING     FLOW-JA-FACE ON UNIT   1029 AT TIME STEP     20, STRESS PERIOD      1
 UBDSV06 SAVING  SOURCE-SINK MIX IN MODEL GWT_P06-MF6      PACKAGE GWT_P06-MF6     CONNECTED TO MODEL GWT_P06-MF6      PACKAGE SSM              ON UNIT   1029 AT TIME STEP     20, STRESS PERIOD      1
1
  CONCENTRATION IN LAYER   1 AT END OF TIME STEP  20 IN STRESS PERIOD    1
  ---------------------------------------------------------------------------

                1               2               3               4               5               6               7               8               9              10
               11              12              13              14              15              16              17              18              19              20
               21              22              23              24              25              26              27              28              29              30
               31
 ................................................................................................................................................................................................................................................................................................................................................................................................................................................................................................................
   1      0.00000        2.314263E-49    2.065269E-46    9.266527E-44    2.698478E-41    5.610215E-39    8.659578E-37    9.977909E-35    8.342846E-33    4.666035E-31
         1.458444E-29    3.049577E-28    3.089883E-26    5.203594E-25    4.471813E-24   -3.087665E-22    4.472010E-24    5.205560E-25    3.092900E-26    3.072832E-28
         1.461312E-29    4.635483E-31    8.177180E-33    9.610451E-35    8.184540E-37    5.209529E-39    2.469773E-41    8.395258E-44    1.860467E-46    2.081549E-49
          0.00000    
   2     2.314263E-49    1.957503E-46    8.771888E-44    2.604416E-41    5.636124E-39    9.286068E-37    1.181853E-34    1.150652E-32    8.224921E-31    3.893869E-29
         9.106777E-28    2.631190E-27    9.084796E-25    5.270930E-24   -1.476282E-22   -1.677388E-20   -1.475964E-22    5.287474E-24    9.114007E-25    2.902035E-27
         9.203842E-28    3.896335E-29    8.135359E-31    1.120763E-32    1.130889E-34    8.727322E-37    5.212136E-39    2.377665E-41    7.936978E-44    1.762493E-46
         2.081330E-49
   3     2.065269E-46    8.771888E-44    2.568592E-41    5.634450E-39    9.649275E-37    1.312823E-34    1.417065E-32    1.187250E-30    7.310582E-29    2.885646E-27
         4.063499E-26   -1.608989E-24   -3.449339E-23   -1.665130E-21   -3.829876E-20   -8.636783E-19   -3.829622E-20   -1.664060E-21   -3.428428E-23   -1.585808E-24
         4.182737E-26    2.910955E-27    7.298866E-29    1.169732E-30    1.373746E-32    1.250541E-34    9.035853E-37    5.197781E-39    2.341673E-41    7.931488E-44
         1.858840E-46
   4     9.266527E-44    2.604416E-41    5.634450E-39    9.765629E-37    1.380280E-34    1.593801E-32    1.483177E-30    1.075317E-28    5.643420E-27    1.743051E-25
        -1.162131E-25   -2.521569E-22   -8.349307E-21   -2.104637E-19   -3.654946E-18   -3.959659E-17   -3.654824E-18   -2.104111E-19   -8.337926E-21   -2.506519E-22
        -1.449983E-26    1.776750E-25    5.688766E-27    1.071617E-28    1.457091E-30    1.540267E-32    1.311289E-34    9.127923E-37    5.192674E-39    2.373480E-41
         8.377660E-44
   5     2.698478E-41    5.636124E-39    9.649275E-37    1.380280E-34    1.655603E-32    1.648508E-30    1.328534E-28    8.247764E-27    3.532161E-25    6.730119E-24
        -2.796400E-22   -2.514982E-20   -7.845438E-19   -1.572537E-17   -2.254265E-16   -1.531178E-15   -2.254227E-16   -1.572354E-17   -7.840982E-19   -2.507564E-20
        -2.733223E-22    7.016949E-24    3.599230E-25    8.312980E-27    1.322346E-28    1.616736E-30    1.597537E-32    1.310097E-34    9.017984E-37    5.196830E-39
         2.461036E-41
   6     5.610215E-39    9.286068E-37    1.312823E-34    1.593801E-32    1.648508E-30    1.421487E-28    9.816064E-27    5.019882E-25    1.523738E-23   -8.118222E-23
        -3.582866E-20   -1.847925E-18   -4.830043E-17   -8.104979E-16   -8.577625E-15   -3.470781E-14   -8.577492E-15   -8.104571E-16   -4.828892E-17   -1.845396E-18
        -3.553832E-20   -6.428459E-23    1.579662E-23    5.120775E-25    9.894698E-27    1.414096E-28    1.615942E-30    1.538026E-32    1.247206E-34    8.693464E-37
         5.184274E-39
   7     8.659578E-37    1.181853E-34    1.417065E-32    1.483177E-30    1.328534E-28    9.816064E-27    5.593325E-25    2.087870E-23    1.512742E-22   -3.924450E-20
        -2.815493E-18   -9.868458E-17   -1.978030E-15   -2.664127E-14   -1.620367E-13   -2.253144E-13   -1.620359E-13   -2.664059E-14   -1.977832E-15   -9.863276E-17
        -2.806548E-18   -3.853081E-20    1.816034E-22    2.166637E-23    5.711017E-25    9.896489E-27    1.321885E-28    1.455068E-30    1.369967E-32    1.126109E-34
         8.138745E-37
   8     9.977909E-35    1.150652E-32    1.187250E-30    1.075317E-28    8.247764E-27    5.019882E-25    2.087870E-23    2.483293E-22   -4.004207E-20   -3.506300E-18
        -1.488459E-16   -3.624932E-15   -5.914622E-14   -4.070332E-13   -2.345306E-12    1.946396E-11   -2.345350E-12   -4.070247E-13   -5.914959E-14   -3.624358E-15
        -1.486912E-16   -3.486778E-18   -3.890885E-20    2.860422E-22    2.169481E-23    5.127152E-25    8.317780E-27    1.071022E-28    1.167357E-30    1.116617E-32
         9.558701E-35
   9     8.342846E-33    8.224921E-31    7.310582E-29    5.643420E-27    3.532161E-25    1.523738E-23    1.512742E-22   -4.004207E-20   -3.771561E-18   -1.812763E-16
        -5.153228E-15   -9.876386E-14   -8.213218E-13   -4.400362E-12    2.140330E-10    3.028358E-09    2.140323E-10   -4.400801E-12   -8.212168E-13   -9.879805E-14
        -5.152188E-15   -1.809918E-16   -3.745371E-18   -3.885700E-20    1.841020E-22    1.585945E-23    3.608119E-25    5.694928E-27    7.295277E-29    8.117112E-31
         8.143960E-33
  10     4.666035E-31    3.893869E-29    2.885646E-27    1.743051E-25    6.730119E-24   -8.118222E-23   -3.924450E-20   -3.506300E-18   -1.812763E-16   -5.783413E-15
        -1.261221E-13   -1.237193E-12   -3.043419E-12    8.957515E-10    3.388166E-08    8.341146E-07    3.388167E-08    8.957509E-10   -3.044961E-12   -1.236686E-12
        -1.262137E-13   -5.782096E-15   -1.809748E-16   -3.484710E-18   -3.842991E-20   -6.141316E-23    7.072629E-24    1.783815E-25    2.916312E-27    3.896091E-29
         4.626635E-31
  11     1.458444E-29    9.106777E-28    4.063499E-26   -1.162131E-25   -2.796400E-22   -3.582866E-20   -2.815493E-18   -1.488459E-16   -5.153228E-15   -1.261221E-13
        -1.412955E-12    7.522461E-13    2.077067E-09    1.441156E-07    7.751736E-06    1.869011E-04    7.751736E-06    1.441156E-07    2.077065E-09    7.492913E-13
        -1.412046E-12   -1.262227E-13   -5.152073E-15   -1.486644E-16   -2.804674E-18   -3.546985E-20   -2.716900E-22    1.390494E-26    4.217894E-26    9.233394E-28
         1.462129E-29
  12     3.049577E-28    2.631190E-27   -1.608989E-24   -2.521569E-22   -2.514982E-20   -1.847925E-18   -9.868458E-17   -3.624932E-15   -9.876386E-14   -1.237193E-12
         7.522461E-13    2.738020E-09    2.848970E-07    2.472152E-05    1.256175E-03    2.891354E-02    1.256175E-03    2.472152E-05    2.848971E-07    2.738009E-09
         7.493172E-13   -1.236594E-12   -9.880863E-14   -3.624264E-15   -9.862001E-17   -1.844673E-18   -2.505266E-20   -2.501510E-22   -1.577522E-24    3.006244E-27
         3.082764E-28
  13     3.089883E-26    9.084796E-25   -3.449339E-23   -8.349307E-21   -7.845438E-19   -4.830043E-17   -1.978030E-15   -5.914622E-14   -8.213218E-13   -3.043419E-12
         2.077067E-09    2.848970E-07    3.534934E-05    2.800589E-03    0.123443         2.09742        0.123443        2.800589E-03    3.534934E-05    2.848971E-07
         2.077062E-09   -3.044993E-12   -8.211856E-13   -5.915198E-14   -1.977799E-15   -4.828604E-17   -7.839663E-19   -8.334215E-21   -3.420947E-23    9.125608E-25
         3.094297E-26
  14     5.203594E-25    5.270930E-24   -1.665130E-21   -2.104637E-19   -1.572537E-17   -8.104979E-16   -2.664127E-14   -4.070332E-13   -4.400362E-12    8.957515E-10
         1.441156E-07    2.472152E-05    2.800589E-03    0.178355         4.65731         31.0876         4.65731        0.178355        2.800589E-03    2.472152E-05
         1.441157E-07    8.957503E-10   -4.400854E-12   -4.070239E-13   -2.664057E-14   -8.104512E-16   -1.572318E-17   -2.103991E-19   -1.663783E-21    5.292479E-24
         5.206306E-25
  15     4.471813E-24   -1.476282E-22   -3.829876E-20   -3.654946E-18   -2.254265E-16   -8.577625E-15   -1.620367E-13   -2.345306E-12    2.140330E-10    3.388166E-08
         7.751736E-06    1.256175E-03    0.123443         4.65731         39.3484         85.8475         39.3484         4.65731        0.123443        1.256175E-03
         7.751736E-06    3.388167E-08    2.140322E-10   -2.345359E-12   -1.620357E-13   -8.577472E-15   -2.254223E-16   -3.654810E-18   -3.829595E-20   -1.475933E-22
         4.472025E-24
  16    -3.087665E-22   -1.677388E-20   -8.636783E-19   -3.959659E-17   -1.531178E-15   -3.470781E-14   -2.253144E-13    1.946396E-11    3.028358E-09    8.341146E-07
         1.869011E-04    2.891354E-02     2.09742         31.0876         85.8475         99.8544         85.8475         31.0876         2.09742        2.891354E-02
         1.869011E-04    8.341146E-07    3.028358E-09    1.946396E-11   -2.253143E-13   -3.470781E-14   -1.531178E-15   -3.959659E-17   -8.636782E-19   -1.677388E-20
        -3.087665E-22
  17     4.472010E-24   -1.475964E-22   -3.829622E-20   -3.654824E-18   -2.254227E-16   -8.577492E-15   -1.620359E-13   -2.345350E-12    2.140323E-10    3.388167E-08
         7.751736E-06    1.256175E-03    0.123443         4.65731         39.3484         85.8475         39.3484         4.65731        0.123443        1.256175E-03
         7.751736E-06    3.388166E-08    2.140330E-10   -2.345306E-12   -1.620367E-13   -8.577624E-15   -2.254265E-16   -3.654946E-18   -3.829875E-20   -1.476282E-22
         4.471813E-24
  18     5.205560E-25    5.287474E-24   -1.664060E-21   -2.104111E-19   -1.572354E-17   -8.104571E-16   -2.664059E-14   -4.070247E-13   -4.400801E-12    8.957509E-10
         1.441156E-07    2.472152E-05    2.800589E-03    0.178355         4.65731         31.0876         4.65731        0.178355        2.800589E-03    2.472152E-05
         1.441156E-07    8.957515E-10   -4.400362E-12   -4.070332E-13   -2.664127E-14   -8.104979E-16   -1.572537E-17   -2.104637E-19   -1.665130E-21    5.270928E-24
         5.203594E-25
  19     3.092900E-26    9.114007E-25   -3.428428E-23   -8.337926E-21   -7.840982E-19   -4.828892E-17   -1.977832E-15   -5.914959E-14   -8.212168E-13   -3.044961E-12
         2.077065E-09    2.848971E-07    3.534934E-05    2.800589E-03    0.123443         2.09742        0.123443        2.800589E-03    3.534934E-05    2.848970E-07
         2.077067E-09   -3.043418E-12   -8.213218E-13   -5.914622E-14   -1.978030E-15   -4.830043E-17   -7.845438E-19   -8.349307E-21   -3.449339E-23    9.084795E-25
         3.089883E-26
  20     3.072832E-28    2.902035E-27   -1.585808E-24   -2.506519E-22   -2.507564E-20   -1.845396E-18   -9.863276E-17   -3.624358E-15   -9.879805E-14   -1.236686E-12
         7.492913E-13    2.738009E-09    2.848971E-07    2.472152E-05    1.256175E-03    2.891354E-02    1.256175E-03    2.472152E-05    2.848970E-07    2.738020E-09
         7.522459E-13   -1.237193E-12   -9.876386E-14   -3.624932E-15   -9.868458E-17   -1.847925E-18   -2.514982E-20   -2.521569E-22   -1.608989E-24    2.631187E-27
         3.049577E-28
  21     1.461312E-29    9.203842E-28    4.182737E-26   -1.449983E-26   -2.733223E-22   -3.553832E-20   -2.806548E-18   -1.486912E-16   -5.152188E-15   -1.262137E-13
        -1.412046E-12    7.493172E-13    2.077062E-09    1.441157E-07    7.751736E-06    1.869011E-04    7.751736E-06    1.441156E-07    2.077067E-09    7.522459E-13
        -1.412955E-12   -1.261221E-13   -5.153228E-15   -1.488459E-16   -2.815493E-18   -3.582866E-20   -2.796401E-22   -1.162132E-25    4.063498E-26    9.106777E-28
         1.458444E-29
  22     4.635483E-31    3.896335E-29    2.910955E-27    1.776750E-25    7.016949E-24   -6.428459E-23   -3.853081E-20   -3.486778E-18   -1.809918E-16   -5.782096E-15
        -1.262227E-13   -1.236594E-12   -3.044993E-12    8.957503E-10    3.388167E-08    8.341146E-07    3.388166E-08    8.957515E-10   -3.043418E-12   -1.237193E-12
        -1.261221E-13   -5.783413E-15   -1.812763E-16   -3.506300E-18   -3.924450E-20   -8.118222E-23    6.730119E-24    1.743051E-25    2.885646E-27    3.893869E-29
         4.666035E-31
  23     8.177180E-33    8.135359E-31    7.298866E-29    5.688766E-27    3.599230E-25    1.579662E-23    1.816034E-22   -3.890885E-20   -3.745371E-18   -1.809748E-16
        -5.152073E-15   -9.880863E-14   -8.211856E-13   -4.400854E-12    2.140322E-10    3.028358E-09    2.140330E-10   -4.400362E-12   -8.213218E-13   -9.876386E-14
        -5.153228E-15   -1.812763E-16   -3.771561E-18   -4.004207E-20    1.512742E-22    1.523738E-23    3.532162E-25    5.643420E-27    7.310582E-29    8.224921E-31
         8.342846E-33
  24     9.610451E-35    1.120763E-32    1.169732E-30    1.071617E-28    8.312980E-27    5.120775E-25    2.166637E-23    2.860422E-22   -3.885700E-20   -3.484710E-18
        -1.486644E-16   -3.624264E-15   -5.915198E-14   -4.070239E-13   -2.345359E-12    1.946396E-11   -2.345306E-12   -4.070332E-13   -5.914622E-14   -3.624932E-15
        -1.488459E-16   -3.506300E-18   -4.004207E-20    2.483293E-22    2.087870E-23    5.019882E-25    8.247764E-27    1.075317E-28    1.187250E-30    1.150652E-32
         9.977909E-35
  25     8.184540E-37    1.130889E-34    1.373746E-32    1.457091E-30    1.322346E-28    9.894698E-27    5.711017E-25    2.169481E-23    1.841020E-22   -3.842991E-20
        -2.804674E-18   -9.862001E-17   -1.977799E-15   -2.664057E-14   -1.620357E-13   -2.253143E-13   -1.620367E-13   -2.664127E-14   -1.978030E-15   -9.868458E-17
        -2.815493E-18   -3.924450E-20    1.512742E-22    2.087870E-23    5.593325E-25    9.816064E-27    1.328534E-28    1.483177E-30    1.417065E-32    1.181853E-34
         8.659578E-37
  26     5.209529E-39    8.727322E-37    1.250541E-34    1.540267E-32    1.616736E-30    1.414096E-28    9.896489E-27    5.127152E-25    1.585945E-23   -6.141316E-23
        -3.546985E-20   -1.844673E-18   -4.828604E-17   -8.104512E-16   -8.577472E-15   -3.470781E-14   -8.577624E-15   -8.104979E-16   -4.830043E-17   -1.847925E-18
        -3.582866E-20   -8.118222E-23    1.523738E-23    5.019882E-25    9.816064E-27    1.421487E-28    1.648508E-30    1.593801E-32    1.312823E-34    9.286068E-37
         5.610215E-39
  27     2.469773E-41    5.212136E-39    9.035853E-37    1.311289E-34    1.597537E-32    1.615942E-30    1.321885E-28    8.317780E-27    3.608119E-25    7.072629E-24
        -2.716900E-22   -2.505266E-20   -7.839663E-19   -1.572318E-17   -2.254223E-16   -1.531178E-15   -2.254265E-16   -1.572537E-17   -7.845438E-19   -2.514982E-20
        -2.796401E-22    6.730119E-24    3.532162E-25    8.247764E-27    1.328534E-28    1.648508E-30    1.655603E-32    1.380280E-34    9.649275E-37    5.636124E-39
         2.698478E-41
  28     8.395258E-44    2.377665E-41    5.197781E-39    9.127923E-37    1.310097E-34    1.538026E-32    1.455068E-30    1.071022E-28    5.694928E-27    1.783815E-25
         1.390494E-26   -2.501510E-22   -8.334215E-21   -2.103991E-19   -3.654810E-18   -3.959659E-17   -3.654946E-18   -2.104637E-19   -8.349307E-21   -2.521569E-22
        -1.162132E-25    1.743051E-25    5.643420E-27    1.075317E-28    1.483177E-30    1.593801E-32    1.380280E-34    9.765629E-37    5.634450E-39    2.604416E-41
         9.266527E-44
  29     1.860467E-46    7.936978E-44    2.341673E-41    5.192674E-39    9.017984E-37    1.247206E-34    1.369967E-32    1.167357E-30    7.295277E-29    2.916312E-27
         4.217894E-26   -1.577522E-24   -3.420947E-23   -1.663783E-21   -3.829595E-20   -8.636782E-19   -3.829875E-20   -1.665130E-21   -3.449339E-23   -1.608989E-24
         4.063498E-26    2.885646E-27    7.310582E-29    1.187250E-30    1.417065E-32    1.312823E-34    9.649275E-37    5.634450E-39    2.568593E-41    8.771888E-44
         2.065269E-46
  30     2.081549E-49    1.762493E-46    7.931488E-44    2.373480E-41    5.196830E-39    8.693464E-37    1.126109E-34    1.116617E-32    8.117112E-31    3.896091E-29
         9.233394E-28    3.006244E-27    9.125608E-25    5.292479E-24   -1.475933E-22   -1.677388E-20   -1.476282E-22    5.270928E-24    9.084795E-25    2.631187E-27
         9.106777E-28    3.893869E-29    8.224921E-31    1.150652E-32    1.181853E-34    9.286068E-37    5.636124E-39    2.604416E-41    8.771888E-44    1.957503E-46
         2.314263E-49
  31      0.00000        2.081330E-49    1.858840E-46    8.377660E-44    2.461036E-41    5.184274E-39    8.138745E-37    9.558701E-35    8.143960E-33    4.626635E-31
         1.462129E-29    3.082764E-28    3.094297E-26    5.206306E-25    4.472025E-24   -3.087665E-22    4.471813E-24    5.203594E-25    3.089883E-26    3.049577E-28
         1.458444E-29    4.666035E-31    8.342846E-33    9.977909E-35    8.659578E-37    5.610215E-39    2.698478E-41    9.266527E-44    2.065269E-46    2.314263E-49
          0.00000    

 CONCENTRATION WILL BE SAVED ON UNIT 1030 AT END OF TIME STEP   20, STRESS PERIOD    1


  MASS BUDGET FOR ENTIRE MODEL AT END OF TIME STEP   20, STRESS PERIOD   1
  ---------------------------------------------------------------------------------------------------

     CUMULATIVE MASS      M       RATES FOR THIS TIME STEP      M/T          PACKAGE NAME    
     ------------------                 ------------------------                     ----------------

           IN:                                      IN:
           ---                                      ---
     STORAGE-AQUEOUS =       4.2421E-03       STORAGE-AQUEOUS =       2.1053E-06     MST                              
                 WEL =  4380000000.0000                   WEL =     8640000.0000     SSM_WEL-1                        
                 CHD =           0.0000                   CHD =           0.0000     SSM_CHD-1                        

            TOTAL IN =  4380000000.0042              TOTAL IN =     8640000.0000

          OUT:                                     OUT:
          ----                                     ----
     STORAGE-AQUEOUS =  4380000000.0042       STORAGE-AQUEOUS =     8640000.0000     MST                              
                 WEL =           0.0000                   WEL =           0.0000     SSM_WEL-1                        
                 CHD =       7.2774E-18                   CHD =       4.7955E-20     SSM_CHD-1                        

           TOTAL OUT =  4380000000.0042             TOTAL OUT =     8640000.0000

            IN - OUT =       4.5776E-05              IN - OUT =      -8.0094E-08

 PERCENT DISCREPANCY =           0.00     PERCENT DISCREPANCY =          -0.00




         TIME SUMMARY AT END OF TIME STEP   20 IN STRESS PERIOD    1
                    SECONDS     MINUTES      HOURS       DAYS        YEARS
                    -----------------------------------------------------------
   TIME STEP LENGTH 2.19000E+06  36500.      608.33      25.347     6.93969E-02
 STRESS PERIOD TIME 4.38000E+07 7.30000E+05  12167.      506.94      1.3879    
         TOTAL TIME 4.38000E+07 7.30000E+05  12167.      506.94      1.3879    


end timestep


start timestep kper="1" kstp="21" mode="normal"

 UBDSV1 SAVING  STORAGE-AQUEOUS ON UNIT   1029 AT TIME STEP     21, STRESS PERIOD      1
 UBDSV1 SAVING     FLOW-JA-FACE ON UNIT   1029 AT TIME STEP     21, STRESS PERIOD      1
 UBDSV06 SAVING  SOURCE-SINK MIX IN MODEL GWT_P06-MF6      PACKAGE GWT_P06-MF6     CONNECTED TO MODEL GWT_P06-MF6      PACKAGE SSM              ON UNIT   1029 AT TIME STEP     21, STRESS PERIOD      1
1
  CONCENTRATION IN LAYER   1 AT END OF TIME STEP  21 IN STRESS PERIOD    1
  ---------------------------------------------------------------------------

                1               2               3               4               5               6               7               8               9              10
               11              12              13              14              15              16              17              18              19              20
               21              22              23              24              25              26              27              28              29              30
               31
 ................................................................................................................................................................................................................................................................................................................................................................................................................................................................................................................
   1      0.00000        4.625491E-49    4.052236E-46    1.785389E-43    5.101923E-41    1.038506E-38    1.562439E-36    1.741878E-34    1.392292E-32    7.260594E-31
         1.922558E-29    2.071013E-28    3.179816E-26    4.162569E-25    6.264756E-25   -4.503804E-22    6.270061E-25    4.166137E-25    3.185619E-26    2.119608E-28
         1.935726E-29    7.244185E-31    1.372945E-32    1.691773E-34    1.491876E-36    9.750693E-39    4.719701E-41    1.632427E-43    3.675395E-46    4.176977E-49
          0.00000    
   2     4.625491E-49    3.840881E-46    1.690471E-43    4.927820E-41    1.045137E-38    1.681104E-36    2.075218E-34    1.939967E-32    1.309213E-30    5.620917E-29
         9.422424E-28   -2.150864E-26    1.566354E-25   -1.748862E-23   -6.008364E-22   -2.376860E-20   -6.007809E-22   -1.746191E-23    1.614780E-25   -2.103605E-26
         9.626386E-28    5.650421E-29    1.302301E-30    1.904288E-32    2.005465E-34    1.598033E-36    9.779918E-39    4.548818E-41    1.543880E-43    3.482040E-46
         4.176547E-49
   3     4.052236E-46    1.690471E-43    4.861223E-41    1.045677E-38    1.749976E-36    2.312668E-34    2.402446E-32    1.910165E-30    1.088236E-28    3.684453E-27
         1.121586E-26   -4.558790E-24   -1.301557E-22   -3.811969E-21   -7.332989E-20   -1.180197E-18   -7.332611E-20   -3.810385E-21   -1.298409E-22   -4.522502E-24
         1.327209E-26    3.739688E-27    1.092394E-28    1.895134E-30    2.350201E-32    2.227244E-34    1.658725E-36    9.765106E-39    4.481900E-41    1.542906E-43
         3.672363E-46
   4     1.785389E-43    4.927820E-41    1.045677E-38    1.772070E-36    2.435057E-34    2.709764E-32    2.399371E-30    1.622130E-28    7.605466E-27    1.740995E-25
        -4.700218E-24   -5.176848E-22   -1.597084E-20   -3.486114E-19   -5.592996E-18   -5.195414E-17   -5.592826E-18   -3.485400E-19   -1.595487E-20   -5.155048E-22
        -4.543255E-24    1.799226E-25    7.713759E-27    1.626879E-28    2.376035E-30    2.644877E-32    2.340334E-34    1.677183E-36    9.756966E-39    4.541770E-41
         1.629307E-43
   5     5.101923E-41    1.045137E-38    1.749976E-36    2.435057E-34    2.817313E-32    2.673196E-30    2.016401E-28    1.134565E-26    4.019736E-25    1.854796E-24
        -7.256652E-22   -4.344497E-20   -1.209879E-18   -2.137888E-17   -2.987996E-16   -1.946411E-15   -2.987940E-16   -2.137671E-17   -1.209289E-18   -4.334406E-20
        -7.166158E-22    2.295369E-24    4.138361E-25    1.151266E-26    2.021315E-28    2.644299E-30    2.746813E-32    2.338684E-34    1.656051E-36    9.755535E-39
         4.704995E-41
   6     1.038506E-38    1.681104E-36    2.312668E-34    2.709764E-32    2.673196E-30    2.161399E-28    1.360879E-26    5.944133E-25    1.087550E-23   -6.731142E-22
        -6.697025E-20   -2.774068E-18   -6.328850E-17   -1.058276E-15   -1.075355E-14   -4.578095E-14   -1.075337E-14   -1.058222E-15   -6.327400E-17   -2.770744E-18
        -6.657739E-20   -6.489985E-22    1.173176E-23    6.124781E-25    1.381735E-26    2.166332E-28    2.643533E-30    2.642117E-32    2.222636E-34    1.592972E-36
         9.710492E-39
   7     1.562439E-36    2.075218E-34    2.402446E-32    2.399371E-30    2.016401E-28    1.360879E-26    6.690219E-25    1.702380E-23   -5.375783E-22   -8.217675E-20
        -4.352642E-18   -1.291435E-16   -2.580693E-15   -3.339157E-14   -1.849945E-13   -3.547116E-13   -1.849934E-13   -3.339086E-14   -2.580484E-15   -1.290675E-16
        -4.340741E-18   -8.121340E-20   -4.944200E-22    1.822754E-23    6.901537E-25    1.382281E-26    2.021384E-28    2.374111E-30    2.345574E-32    1.998880E-34
         1.485043E-36
   8     1.741878E-34    1.939967E-32    1.910165E-30    1.622130E-28    1.134565E-26    5.944133E-25    1.702380E-23   -4.752481E-22   -9.021470E-20   -5.563729E-18
        -1.974408E-16   -4.734517E-15   -7.490739E-14   -4.904010E-13   -2.546078E-12    2.869895E-11   -2.546134E-12   -4.903910E-13   -7.491134E-14   -4.734191E-15
        -1.971821E-16   -5.537767E-18   -8.868718E-20   -4.216584E-22    1.827059E-23    6.136370E-25    1.152637E-26    1.627129E-28    1.892955E-30    1.899267E-32
         1.684677E-34
   9     1.392292E-32    1.309213E-30    1.088236E-28    7.605466E-27    4.019736E-25    1.087550E-23   -5.375783E-22   -9.021470E-20   -6.035756E-18   -2.425510E-16
        -6.730998E-15   -1.259188E-13   -1.026492E-12   -3.004466E-12    2.980694E-10    4.350632E-09    2.980688E-10   -3.005006E-12   -1.026367E-12   -1.259570E-13
        -6.730983E-15   -2.420853E-16   -6.000976E-18   -8.861796E-20   -4.908985E-22    1.182703E-23    4.154191E-25    7.729406E-27    1.092880E-28    1.300757E-30
         1.368999E-32
  10     7.260594E-31    5.620917E-29    3.684453E-27    1.740995E-25    1.854796E-24   -6.731142E-22   -8.217675E-20   -5.563729E-18   -2.425510E-16   -7.552952E-15
        -1.614228E-13   -1.571302E-12    2.514065E-12    1.276525E-09    4.981171E-08    1.187385E-06    4.981172E-08    1.276525E-09    2.511936E-12   -1.570666E-12
        -1.615253E-13   -7.553217E-15   -2.420602E-16   -5.535073E-18   -8.107863E-20   -6.449422E-22    2.379971E-24    1.811348E-25    3.751582E-27    5.656221E-29
         7.238248E-31
  11     1.922558E-29    9.422424E-28    1.121586E-26   -4.700218E-24   -7.256652E-22   -6.697025E-20   -4.352642E-18   -1.974408E-16   -6.730998E-15   -1.614228E-13
        -1.802084E-12    1.070181E-11    3.007036E-09    2.122601E-07    1.102888E-05    2.560586E-04    1.102888E-05    2.122601E-07    3.007040E-09    1.069690E-11
        -1.800917E-12   -1.615356E-13   -6.731026E-15   -1.971417E-16   -4.338305E-18   -6.648590E-20   -7.143057E-22   -4.500033E-24    1.386932E-26    9.687697E-28
         1.939695E-29
  12     2.071013E-28   -2.150864E-26   -4.558790E-24   -5.176848E-22   -4.344497E-20   -2.774068E-18   -1.291435E-16   -4.734517E-15   -1.259188E-13   -1.571302E-12
         1.070181E-11    3.982768E-09    4.196725E-07    3.513540E-05    1.719108E-03    3.784572E-02    1.719108E-03    3.513540E-05    4.196726E-07    3.982770E-09
         1.069670E-11   -1.570541E-12   -1.259690E-13   -4.734196E-15   -1.290481E-16   -2.769807E-18   -4.331326E-20   -5.147923E-22   -4.509831E-24   -2.086030E-26
         2.139068E-28
  13     3.179816E-26    1.566354E-25   -1.301557E-22   -1.597084E-20   -1.209879E-18   -6.328850E-17   -2.580693E-15   -7.490739E-14   -1.026492E-12    2.514065E-12
         3.007036E-09    4.196725E-07    5.020072E-05    3.821547E-03    0.160344         2.53242        0.160344        3.821547E-03    5.020072E-05    4.196726E-07
         3.007038E-09    2.511754E-12   -1.026326E-12   -7.491408E-14   -2.580463E-15   -6.327009E-17   -1.209116E-18   -1.594977E-20   -1.297317E-22    1.633142E-25
         3.188083E-26
  14     4.162569E-25   -1.748862E-23   -3.811969E-21   -3.486114E-19   -2.137888E-17   -1.058276E-15   -3.339157E-14   -4.904010E-13   -3.004466E-12    1.276525E-09
         2.122601E-07    3.513540E-05    3.821547E-03    0.230618         5.54511         33.8176         5.54511        0.230618        3.821547E-03    3.513540E-05
         2.122601E-07    1.276525E-09   -3.005080E-12   -4.903896E-13   -3.339086E-14   -1.058214E-15   -2.137626E-17   -3.485240E-19   -3.809992E-21   -1.745438E-23
         4.167333E-25
  15     6.264756E-25   -6.008364E-22   -7.332989E-20   -5.592996E-18   -2.987996E-16   -1.075355E-14   -1.849945E-13   -2.546078E-12    2.980694E-10    4.981171E-08
         1.102888E-05    1.719108E-03    0.160344         5.54511         42.4912         87.2719         42.4912         5.54511        0.160344        1.719108E-03
         1.102888E-05    4.981173E-08    2.980687E-10   -2.546145E-12   -1.849932E-13   -1.075335E-14   -2.987933E-16   -5.592805E-18   -7.332569E-20   -6.007752E-22
         6.270550E-25
  16    -4.503804E-22   -2.376860E-20   -1.180197E-18   -5.195414E-17   -1.946411E-15   -4.578095E-14   -3.547116E-13    2.869895E-11    4.350632E-09    1.187385E-06
         2.560586E-04    3.784572E-02     2.53242         33.8176         87.2719         99.8950         87.2719         33.8176         2.53242        3.784572E-02
         2.560586E-04    1.187385E-06    4.350632E-09    2.869896E-11   -3.547116E-13   -4.578095E-14   -1.946411E-15   -5.195413E-17   -1.180197E-18   -2.376860E-20
        -4.503804E-22
  17     6.270061E-25   -6.007809E-22   -7.332611E-20   -5.592826E-18   -2.987940E-16   -1.075337E-14   -1.849934E-13   -2.546134E-12    2.980688E-10    4.981172E-08
         1.102888E-05    1.719108E-03    0.160344         5.54511         42.4912         87.2719         42.4912         5.54511        0.160344        1.719108E-03
         1.102888E-05    4.981171E-08    2.980694E-10   -2.546078E-12   -1.849945E-13   -1.075355E-14   -2.987996E-16   -5.592996E-18   -7.332989E-20   -6.008364E-22
         6.264753E-25
  18     4.166137E-25   -1.746191E-23   -3.810385E-21   -3.485400E-19   -2.137671E-17   -1.058222E-15   -3.339086E-14   -4.903910E-13   -3.005006E-12    1.276525E-09
         2.122601E-07    3.513540E-05    3.821547E-03    0.230618         5.54511         33.8176         5.54511        0.230618        3.821547E-03    3.513540E-05
         2.122601E-07    1.276525E-09   -3.004465E-12   -4.904010E-13   -3.339157E-14   -1.058276E-15   -2.137888E-17   -3.486114E-19   -3.811969E-21   -1.748862E-23
         4.162569E-25
  19     3.185619E-26    1.614780E-25   -1.298409E-22   -1.595487E-20   -1.209289E-18   -6.327400E-17   -2.580484E-15   -7.491134E-14   -1.026367E-12    2.511936E-12
         3.007040E-09    4.196726E-07    5.020072E-05    3.821547E-03    0.160344         2.53242        0.160344        3.821547E-03    5.020072E-05    4.196725E-07
         3.007036E-09    2.514065E-12   -1.026492E-12   -7.490739E-14   -2.580693E-15   -6.328849E-17   -1.209879E-18   -1.597084E-20   -1.301557E-22    1.566353E-25
         3.179815E-26
  20     2.119608E-28   -2.103605E-26   -4.522502E-24   -5.155048E-22   -4.334406E-20   -2.770744E-18   -1.290675E-16   -4.734191E-15   -1.259570E-13   -1.570666E-12
         1.069690E-11    3.982770E-09    4.196726E-07    3.513540E-05    1.719108E-03    3.784572E-02    1.719108E-03    3.513540E-05    4.196725E-07    3.982768E-09
         1.070181E-11   -1.571302E-12   -1.259188E-13   -4.734517E-15   -1.291435E-16   -2.774068E-18   -4.344497E-20   -5.176849E-22   -4.558790E-24   -2.150864E-26
         2.071013E-28
  21     1.935726E-29    9.626386E-28    1.327209E-26   -4.543255E-24   -7.166158E-22   -6.657739E-20   -4.340741E-18   -1.971821E-16   -6.730983E-15   -1.615253E-13
        -1.800917E-12    1.069670E-11    3.007038E-09    2.122601E-07    1.102888E-05    2.560586E-04    1.102888E-05    2.122601E-07    3.007036E-09    1.070181E-11
        -1.802084E-12   -1.614228E-13   -6.730998E-15   -1.974408E-16   -4.352642E-18   -6.697025E-20   -7.256652E-22   -4.700218E-24    1.121585E-26    9.422423E-28
         1.922558E-29
  22     7.244185E-31    5.650421E-29    3.739688E-27    1.799226E-25    2.295369E-24   -6.489985E-22   -8.121340E-20   -5.537767E-18   -2.420853E-16   -7.553217E-15
        -1.615356E-13   -1.570541E-12    2.511754E-12    1.276525E-09    4.981173E-08    1.187385E-06    4.981171E-08    1.276525E-09    2.514065E-12   -1.571302E-12
        -1.614228E-13   -7.552952E-15   -2.425510E-16   -5.563729E-18   -8.217675E-20   -6.731142E-22    1.854796E-24    1.740995E-25    3.684453E-27    5.620917E-29
         7.260594E-31
  23     1.372945E-32    1.302301E-30    1.092394E-28    7.713759E-27    4.138361E-25    1.173176E-23   -4.944200E-22   -8.868718E-20   -6.000976E-18   -2.420602E-16
        -6.731026E-15   -1.259690E-13   -1.026326E-12   -3.005080E-12    2.980687E-10    4.350632E-09    2.980694E-10   -3.004465E-12   -1.026492E-12   -1.259188E-13
        -6.730998E-15   -2.425510E-16   -6.035756E-18   -9.021470E-20   -5.375783E-22    1.087550E-23    4.019736E-25    7.605466E-27    1.088236E-28    1.309213E-30
         1.392292E-32
  24     1.691773E-34    1.904288E-32    1.895134E-30    1.626879E-28    1.151266E-26    6.124781E-25    1.822754E-23   -4.216584E-22   -8.861796E-20   -5.535073E-18
        -1.971417E-16   -4.734196E-15   -7.491408E-14   -4.903896E-13   -2.546145E-12    2.869896E-11   -2.546078E-12   -4.904010E-13   -7.490739E-14   -4.734517E-15
        -1.974408E-16   -5.563729E-18   -9.021470E-20   -4.752481E-22    1.702380E-23    5.944133E-25    1.134565E-26    1.622130E-28    1.910165E-30    1.939967E-32
         1.741878E-34
  25     1.491876E-36    2.005465E-34    2.350201E-32    2.376035E-30    2.021315E-28    1.381735E-26    6.901537E-25    1.827059E-23   -4.908985E-22   -8.107863E-20
        -4.338305E-18   -1.290481E-16   -2.580463E-15   -3.339086E-14   -1.849932E-13   -3.547116E-13   -1.849945E-13   -3.339157E-14   -2.580693E-15   -1.291435E-16
        -4.352642E-18   -8.217675E-20   -5.375783E-22    1.702380E-23    6.690219E-25    1.360879E-26    2.016401E-28    2.399371E-30    2.402446E-32    2.075218E-34
         1.562439E-36
  26     9.750693E-39    1.598033E-36    2.227244E-34    2.644877E-32    2.644299E-30    2.166332E-28    1.382281E-26    6.136370E-25    1.182703E-23   -6.449422E-22
        -6.648590E-20   -2.769807E-18   -6.327009E-17   -1.058214E-15   -1.075335E-14   -4.578095E-14   -1.075355E-14   -1.058276E-15   -6.328849E-17   -2.774068E-18
        -6.697025E-20   -6.731142E-22    1.087550E-23    5.944133E-25    1.360879E-26    2.161399E-28    2.673196E-30    2.709764E-32    2.312668E-34    1.681104E-36
         1.038506E-38
  27     4.719701E-41    9.779918E-39    1.658725E-36    2.340334E-34    2.746813E-32    2.643533E-30    2.021384E-28    1.152637E-26    4.154191E-25    2.379971E-24
        -7.143057E-22   -4.331326E-20   -1.209116E-18   -2.137626E-17   -2.987933E-16   -1.946411E-15   -2.987996E-16   -2.137888E-17   -1.209879E-18   -4.344497E-20
        -7.256652E-22    1.854796E-24    4.019736E-25    1.134565E-26    2.016401E-28    2.673196E-30    2.817313E-32    2.435057E-34    1.749976E-36    1.045137E-38
         5.101923E-41
  28     1.632427E-43    4.548818E-41    9.765106E-39    1.677183E-36    2.338684E-34    2.642117E-32    2.374111E-30    1.627129E-28    7.729406E-27    1.811348E-25
        -4.500033E-24   -5.147923E-22   -1.594977E-20   -3.485240E-19   -5.592805E-18   -5.195413E-17   -5.592996E-18   -3.486114E-19   -1.597084E-20   -5.176849E-22
        -4.700218E-24    1.740995E-25    7.605466E-27    1.622130E-28    2.399371E-30    2.709764E-32    2.435057E-34    1.772070E-36    1.045677E-38    4.927820E-41
         1.785389E-43
  29     3.675395E-46    1.543880E-43    4.481900E-41    9.756966E-39    1.656051E-36    2.222636E-34    2.345574E-32    1.892955E-30    1.092880E-28    3.751582E-27
         1.386932E-26   -4.509831E-24   -1.297317E-22   -3.809992E-21   -7.332569E-20   -1.180197E-18   -7.332989E-20   -3.811969E-21   -1.301557E-22   -4.558790E-24
         1.121585E-26    3.684453E-27    1.088236E-28    1.910165E-30    2.402446E-32    2.312668E-34    1.749976E-36    1.045677E-38    4.861223E-41    1.690471E-43
         4.052236E-46
  30     4.176977E-49    3.482040E-46    1.542906E-43    4.541770E-41    9.755535E-39    1.592972E-36    1.998880E-34    1.899267E-32    1.300757E-30    5.656221E-29
         9.687697E-28   -2.086030E-26    1.633142E-25   -1.745438E-23   -6.007752E-22   -2.376860E-20   -6.008364E-22   -1.748862E-23    1.566353E-25   -2.150864E-26
         9.422423E-28    5.620917E-29    1.309213E-30    1.939967E-32    2.075218E-34    1.681104E-36    1.045137E-38    4.927820E-41    1.690471E-43    3.840881E-46
         4.625491E-49
  31      0.00000        4.176547E-49    3.672363E-46    1.629307E-43    4.704995E-41    9.710492E-39    1.485043E-36    1.684677E-34    1.368999E-32    7.238248E-31
         1.939695E-29    2.139068E-28    3.188083E-26    4.167333E-25    6.270550E-25   -4.503804E-22    6.264753E-25    4.162569E-25    3.179815E-26    2.071013E-28
         1.922558E-29    7.260594E-31    1.392292E-32    1.741878E-34    1.562439E-36    1.038506E-38    5.101923E-41    1.785389E-43    4.052236E-46    4.625491E-49
          0.00000    

 CONCENTRATION WILL BE SAVED ON UNIT 1030 AT END OF TIME STEP   21, STRESS PERIOD    1


  MASS BUDGET FOR ENTIRE MODEL AT END OF TIME STEP   21, STRESS PERIOD   1
  ---------------------------------------------------------------------------------------------------

     CUMULATIVE MASS      M       RATES FOR THIS TIME STEP      M/T          PACKAGE NAME    
     ------------------                 ------------------------                     ----------------

           IN:                                      IN:
           ---                                      ---
     STORAGE-AQUEOUS =       4.2966E-03       STORAGE-AQUEOUS =       2.1529E-06     MST                              
                 WEL =  4599000000.0000                   WEL =     8640000.0000     SSM_WEL-1                        
                 CHD =           0.0000                   CHD =           0.0000     SSM_CHD-1                        

            TOTAL IN =  4599000000.0043              TOTAL IN =     8640000.0000

          OUT:                                     OUT:
          ----                                     ----
     STORAGE-AQUEOUS =  4599000000.0043       STORAGE-AQUEOUS =     8640000.0000     MST                              
                 WEL =           0.0000                   WEL =           0.0000     SSM_WEL-1                        
                 CHD =       7.5355E-18                   CHD =       1.0183E-20     SSM_CHD-1                        

           TOTAL OUT =  4599000000.0043             TOTAL OUT =     8640000.0000

            IN - OUT =       4.2915E-05              IN - OUT =      -9.4995E-08

 PERCENT DISCREPANCY =           0.00     PERCENT DISCREPANCY =          -0.00




         TIME SUMMARY AT END OF TIME STEP   21 IN STRESS PERIOD    1
                    SECONDS     MINUTES      HOURS       DAYS        YEARS
                    -----------------------------------------------------------
   TIME STEP LENGTH 2.19000E+06  36500.      608.33      25.347     6.93969E-02
 STRESS PERIOD TIME 4.59900E+07 7.66500E+05  12775.      532.29      1.4573    
         TOTAL TIME 4.59900E+07 7.66500E+05  12775.      532.29      1.4573    


end timestep


start timestep kper="1" kstp="22" mode="normal"

 UBDSV1 SAVING  STORAGE-AQUEOUS ON UNIT   1029 AT TIME STEP     22, STRESS PERIOD      1
 UBDSV1 SAVING     FLOW-JA-FACE ON UNIT   1029 AT TIME STEP     22, STRESS PERIOD      1
 UBDSV06 SAVING  SOURCE-SINK MIX IN MODEL GWT_P06-MF6      PACKAGE GWT_P06-MF6     CONNECTED TO MODEL GWT_P06-MF6      PACKAGE SSM              ON UNIT   1029 AT TIME STEP     22, STRESS PERIOD      1
1
  CONCENTRATION IN LAYER   1 AT END OF TIME STEP  22 IN STRESS PERIOD    1
  ---------------------------------------------------------------------------

                1               2               3               4               5               6               7               8               9              10
               11              12              13              14              15              16              17              18              19              20
               21              22              23              24              25              26              27              28              29              30
               31
 ................................................................................................................................................................................................................................................................................................................................................................................................................................................................................................................
   1      0.00000        9.081447E-49    7.812559E-46    3.378342E-43    9.458820E-41    1.880107E-38    2.746865E-36    2.948318E-34    2.236050E-32    1.068538E-30
         2.159894E-29   -1.806363E-28    2.312065E-26    6.465179E-26   -7.824531E-24   -6.480467E-22   -7.823462E-24    6.525089E-26    2.322154E-26   -1.716141E-28
         2.191951E-29    1.070650E-30    2.216775E-32    2.884304E-34    2.646684E-36    1.783465E-38    8.842717E-41    3.119267E-43    7.144351E-46    8.250287E-49
          0.00000    
   2     9.081447E-49    7.405251E-46    3.199435E-43    9.142478E-41    1.895120E-38    2.964422E-36    3.531655E-34    3.149155E-32    1.984299E-30    7.472121E-29
         5.255298E-28   -7.569404E-26   -1.531757E-24   -5.966250E-23   -1.358682E-21   -3.318057E-20   -1.358592E-21   -5.962167E-23   -1.524221E-24   -7.492203E-26
         5.631067E-28    7.551748E-29    1.983983E-30    3.111769E-32    3.441911E-34    2.846299E-36    1.792783E-38    8.531467E-41    2.951133E-43    6.768932E-46
         8.249479E-49
   3     7.812559E-46    3.199435E-43    9.020965E-41    1.897498E-38    3.090828E-36    3.947617E-34    3.922202E-32    2.933573E-30    1.518332E-28    4.058735E-27
        -7.013889E-26   -9.983588E-24   -2.920067E-22   -7.069550E-21   -1.237775E-19   -1.589494E-18   -1.237720E-19   -7.067311E-21   -2.915554E-22   -9.929236E-24
        -6.681433E-26    4.161916E-27    1.532607E-28    2.928271E-30    3.866236E-32    3.837302E-34    2.960952E-36    1.792052E-38    8.409376E-41    2.949471E-43
         7.138922E-46
   4     3.378342E-43    9.142478E-41    1.897498E-38    3.131422E-36    4.162158E-34    4.436670E-32    3.708937E-30    2.307576E-28    9.303324E-27    1.049847E-25
        -1.375060E-23   -9.436847E-22   -2.701278E-20   -5.289139E-19   -8.090316E-18   -6.725890E-17   -8.090082E-18   -5.288207E-19   -2.699137E-20   -9.406288E-22
        -1.351789E-23    1.143872E-25    9.512529E-27    2.328614E-28    3.698100E-30    4.366447E-32    4.039621E-34    2.996325E-36    1.790804E-38    8.520032E-41
         3.113943E-43
   5     9.458820E-41    1.895120E-38    3.090828E-36    4.162158E-34    4.616840E-32    4.143710E-30    2.892978E-28    1.437455E-26    3.705260E-25   -9.541613E-24
        -1.462638E-21   -6.951573E-20   -1.753347E-18   -2.787416E-17   -3.861360E-16   -2.414144E-15   -3.861284E-16   -2.787159E-17   -1.752601E-18   -6.938181E-20
        -1.450026E-21   -8.891282E-24    3.898379E-25    1.470457E-26    2.919468E-28    4.129048E-30    4.540279E-32    4.037462E-34    2.957120E-36    1.789046E-38
         8.818864E-41
   6     1.880107E-38    2.964422E-36    3.947617E-34    4.436670E-32    4.143710E-30    3.108681E-28    1.746124E-26    6.002459E-25   -1.746159E-24   -1.696417E-21
        -1.118893E-19   -3.955593E-18   -8.102742E-17   -1.362443E-15   -1.282759E-14   -5.731627E-14   -1.282739E-14   -1.362375E-15   -8.101053E-17   -3.951348E-18
        -1.113670E-19   -1.662898E-21   -4.867230E-25    6.297669E-25    1.787765E-26    3.137627E-28    4.128543E-30    4.363365E-32    3.831282E-34    2.839055E-36
         1.777307E-38
   7     2.746865E-36    3.531655E-34    3.922202E-32    3.708937E-30    2.892978E-28    1.746124E-26    6.900485E-25    3.895525E-24   -1.768777E-21   -1.449839E-19
        -6.322933E-18   -1.652947E-16   -3.334768E-15   -4.103911E-14   -2.134660E-13   -5.731161E-13   -2.134644E-13   -4.103838E-14   -3.334553E-15   -1.652056E-16
        -6.307498E-18   -1.437047E-19   -1.708946E-21    5.662067E-24    7.246022E-25    1.788891E-26    2.920580E-28    3.696898E-30    3.861122E-32    3.433346E-34
         2.636926E-36
   8     2.948318E-34    3.149155E-32    2.933573E-30    2.307576E-28    1.437455E-26    6.002459E-25    3.895525E-24   -1.783698E-21   -1.641760E-19   -8.211637E-18
        -2.544642E-16   -6.134420E-15   -9.382619E-14   -5.983451E-13   -2.458416E-12    4.078681E-11   -2.458485E-12   -5.983340E-13   -9.383058E-14   -6.134368E-15
        -2.541574E-16   -8.177891E-18   -1.621506E-19   -1.709501E-21    5.724603E-24    6.316616E-25    1.473237E-26    2.330504E-28    2.927098E-30    3.106329E-32
         2.875141E-34
   9     2.236050E-32    1.984299E-30    1.518332E-28    9.303324E-27    3.705260E-25   -1.746159E-24   -1.768777E-21   -1.641760E-19   -8.953993E-18   -3.139354E-16
        -8.730473E-15   -1.588245E-13   -1.303924E-12   -4.233845E-13    4.099572E-10    6.210065E-09    4.099567E-10   -4.240356E-13   -1.303779E-12   -1.588659E-13
        -8.731550E-15   -3.133754E-16   -8.908809E-18   -1.620598E-19   -1.704111E-21   -3.480851E-25    3.924071E-25    9.543196E-27    1.534696E-28    1.983471E-30
         2.212664E-32
  10     1.068538E-30    7.472121E-29    4.058735E-27    1.049847E-25   -9.541613E-24   -1.696417E-21   -1.449839E-19   -8.211637E-18   -3.139354E-16   -9.798676E-15
        -2.042304E-13   -2.033366E-12    1.127632E-11    1.805580E-09    7.230550E-08    1.667054E-06    7.230551E-08    1.805582E-09    1.127355E-11   -2.032599E-12
        -2.043420E-13   -9.800665E-15   -3.133449E-16   -8.174438E-18   -1.435277E-19   -1.657318E-21   -8.767789E-24    1.163259E-25    4.184139E-27    7.568688E-29
         1.070875E-30
  11     2.159894E-29    5.255298E-28   -7.013889E-26   -1.375060E-23   -1.462638E-21   -1.118893E-19   -6.322933E-18   -2.544642E-16   -8.730473E-15   -2.042304E-13
        -2.343833E-12    2.595066E-11    4.319920E-09    3.083732E-07    1.548070E-05    3.464676E-04    1.548070E-05    3.083733E-07    4.319931E-09    2.594361E-11
        -2.342398E-12   -2.043534E-13   -8.731773E-15   -2.541094E-16   -6.304388E-18   -1.112469E-19   -1.446844E-21   -1.345466E-23   -6.586243E-26    5.742517E-28
         2.201599E-29
  12    -1.806363E-28   -7.569404E-26   -9.983588E-24   -9.436847E-22   -6.951573E-20   -3.955593E-18   -1.652947E-16   -6.134420E-15   -1.588245E-13   -2.033366E-12
         2.595066E-11    5.746940E-09    6.096323E-07    4.926838E-05    2.323634E-03    4.895200E-02    2.323634E-03    4.926838E-05    6.096323E-07    5.746957E-09
         2.594317E-11   -2.032439E-12   -1.588792E-13   -6.134486E-15   -1.651831E-16   -3.950163E-18   -6.934148E-20   -9.396457E-22   -9.910635E-24   -7.464253E-26
        -1.681479E-28
  13     2.312065E-26   -1.531757E-24   -2.920067E-22   -2.701278E-20   -1.753347E-18   -8.102742E-17   -3.334768E-15   -9.382619E-14   -1.303924E-12    1.127632E-11
         4.319920E-09    6.096323E-07    7.033859E-05    5.150350E-03    0.205753         3.02239        0.205753        5.150350E-03    7.033859E-05    6.096323E-07
         4.319931E-09    1.127320E-11   -1.303728E-12   -9.383364E-14   -3.334547E-15   -8.100604E-17   -1.752385E-18   -2.698468E-20   -2.914031E-22   -1.521464E-24
         2.326197E-26
  14     6.465179E-26   -5.966250E-23   -7.069550E-21   -5.289139E-19   -2.787416E-17   -1.362443E-15   -4.103911E-14   -5.983451E-13   -4.233845E-13    1.805580E-09
         3.083732E-07    4.926838E-05    5.150350E-03    0.294615         6.52737         36.5222         6.52737        0.294615        5.150350E-03    4.926838E-05
         3.083733E-07    1.805582E-09   -4.241342E-13   -5.983321E-13   -4.103839E-14   -1.362366E-15   -2.787106E-17   -5.288001E-19   -7.066772E-21   -5.961073E-23
         6.543525E-26
  15    -7.824531E-24   -1.358682E-21   -1.237775E-19   -8.090316E-18   -3.861360E-16   -1.282759E-14   -2.134660E-13   -2.458416E-12    4.099572E-10    7.230550E-08
         1.548070E-05    2.323634E-03    0.205753         6.52737         45.5593         88.5236         45.5593         6.52737        0.205753        2.323634E-03
         1.548070E-05    7.230552E-08    4.099566E-10   -2.458499E-12   -2.134641E-13   -1.282736E-14   -3.861273E-16   -8.090054E-18   -1.237714E-19   -1.358583E-21
        -7.823357E-24
  16    -6.480467E-22   -3.318057E-20   -1.589494E-18   -6.725890E-17   -2.414144E-15   -5.731627E-14   -5.731161E-13    4.078681E-11    6.210065E-09    1.667054E-06
         3.464676E-04    4.895200E-02     3.02239         36.5222         88.5236         99.9242         88.5236         36.5222         3.02239        4.895200E-02
         3.464676E-04    1.667054E-06    6.210064E-09    4.078681E-11   -5.731161E-13   -5.731626E-14   -2.414144E-15   -6.725890E-17   -1.589494E-18   -3.318057E-20
        -6.480467E-22
  17    -7.823462E-24   -1.358592E-21   -1.237720E-19   -8.090082E-18   -3.861284E-16   -1.282739E-14   -2.134644E-13   -2.458485E-12    4.099567E-10    7.230551E-08
         1.548070E-05    2.323634E-03    0.205753         6.52737         45.5593         88.5236         45.5593         6.52737        0.205753        2.323634E-03
         1.548070E-05    7.230550E-08    4.099572E-10   -2.458416E-12   -2.134660E-13   -1.282759E-14   -3.861360E-16   -8.090316E-18   -1.237775E-19   -1.358682E-21
        -7.824531E-24
  18     6.525089E-26   -5.962167E-23   -7.067311E-21   -5.288207E-19   -2.787159E-17   -1.362375E-15   -4.103838E-14   -5.983340E-13   -4.240356E-13    1.805582E-09
         3.083733E-07    4.926838E-05    5.150350E-03    0.294615         6.52737         36.5222         6.52737        0.294615        5.150350E-03    4.926838E-05
         3.083732E-07    1.805580E-09   -4.233843E-13   -5.983450E-13   -4.103911E-14   -1.362443E-15   -2.787416E-17   -5.289139E-19   -7.069550E-21   -5.966250E-23
         6.465174E-26
  19     2.322154E-26   -1.524221E-24   -2.915554E-22   -2.699137E-20   -1.752601E-18   -8.101053E-17   -3.334553E-15   -9.383058E-14   -1.303779E-12    1.127355E-11
         4.319931E-09    6.096323E-07    7.033859E-05    5.150350E-03    0.205753         3.02239        0.205753        5.150350E-03    7.033859E-05    6.096323E-07
         4.319920E-09    1.127632E-11   -1.303924E-12   -9.382619E-14   -3.334768E-15   -8.102742E-17   -1.753347E-18   -2.701278E-20   -2.920067E-22   -1.531757E-24
         2.312065E-26
  20    -1.716141E-28   -7.492203E-26   -9.929236E-24   -9.406288E-22   -6.938181E-20   -3.951348E-18   -1.652056E-16   -6.134368E-15   -1.588659E-13   -2.032599E-12
         2.594361E-11    5.746957E-09    6.096323E-07    4.926838E-05    2.323634E-03    4.895200E-02    2.323634E-03    4.926838E-05    6.096323E-07    5.746940E-09
         2.595066E-11   -2.033366E-12   -1.588245E-13   -6.134420E-15   -1.652947E-16   -3.955593E-18   -6.951573E-20   -9.436847E-22   -9.983588E-24   -7.569405E-26
        -1.806363E-28
  21     2.191951E-29    5.631067E-28   -6.681433E-26   -1.351789E-23   -1.450026E-21   -1.113670E-19   -6.307498E-18   -2.541574E-16   -8.731550E-15   -2.043420E-13
        -2.342398E-12    2.594317E-11    4.319931E-09    3.083733E-07    1.548070E-05    3.464676E-04    1.548070E-05    3.083732E-07    4.319920E-09    2.595066E-11
        -2.343833E-12   -2.042304E-13   -8.730473E-15   -2.544642E-16   -6.322933E-18   -1.118893E-19   -1.462638E-21   -1.375060E-23   -7.013889E-26    5.255297E-28
         2.159894E-29
  22     1.070650E-30    7.551748E-29    4.161916E-27    1.143872E-25   -8.891282E-24   -1.662898E-21   -1.437047E-19   -8.177891E-18   -3.133754E-16   -9.800665E-15
        -2.043534E-13   -2.032439E-12    1.127320E-11    1.805582E-09    7.230552E-08    1.667054E-06    7.230550E-08    1.805580E-09    1.127632E-11   -2.033366E-12
        -2.042304E-13   -9.798676E-15   -3.139354E-16   -8.211637E-18   -1.449839E-19   -1.696417E-21   -9.541613E-24    1.049847E-25    4.058735E-27    7.472120E-29
         1.068538E-30
  23     2.216775E-32    1.983983E-30    1.532607E-28    9.512529E-27    3.898379E-25   -4.867230E-25   -1.708946E-21   -1.621506E-19   -8.908809E-18   -3.133449E-16
        -8.731773E-15   -1.588792E-13   -1.303728E-12   -4.241342E-13    4.099566E-10    6.210064E-09    4.099572E-10   -4.233843E-13   -1.303924E-12   -1.588245E-13
        -8.730473E-15   -3.139354E-16   -8.953993E-18   -1.641760E-19   -1.768777E-21   -1.746159E-24    3.705260E-25    9.303324E-27    1.518332E-28    1.984299E-30
         2.236050E-32
  24     2.884304E-34    3.111769E-32    2.928271E-30    2.328614E-28    1.470457E-26    6.297669E-25    5.662067E-24   -1.709501E-21   -1.620598E-19   -8.174438E-18
        -2.541094E-16   -6.134486E-15   -9.383364E-14   -5.983321E-13   -2.458499E-12    4.078681E-11   -2.458416E-12   -5.983450E-13   -9.382619E-14   -6.134420E-15
        -2.544642E-16   -8.211637E-18   -1.641760E-19   -1.783698E-21    3.895525E-24    6.002459E-25    1.437455E-26    2.307576E-28    2.933573E-30    3.149155E-32
         2.948318E-34
  25     2.646684E-36    3.441911E-34    3.866236E-32    3.698100E-30    2.919468E-28    1.787765E-26    7.246022E-25    5.724603E-24   -1.704111E-21   -1.435277E-19
        -6.304388E-18   -1.651831E-16   -3.334547E-15   -4.103839E-14   -2.134641E-13   -5.731161E-13   -2.134660E-13   -4.103911E-14   -3.334768E-15   -1.652947E-16
        -6.322933E-18   -1.449839E-19   -1.768777E-21    3.895525E-24    6.900485E-25    1.746124E-26    2.892978E-28    3.708937E-30    3.922202E-32    3.531655E-34
         2.746865E-36
  26     1.783465E-38    2.846299E-36    3.837302E-34    4.366447E-32    4.129048E-30    3.137627E-28    1.788891E-26    6.316616E-25   -3.480851E-25   -1.657318E-21
        -1.112469E-19   -3.950163E-18   -8.100604E-17   -1.362366E-15   -1.282736E-14   -5.731626E-14   -1.282759E-14   -1.362443E-15   -8.102742E-17   -3.955593E-18
        -1.118893E-19   -1.696417E-21   -1.746159E-24    6.002459E-25    1.746124E-26    3.108681E-28    4.143710E-30    4.436670E-32    3.947617E-34    2.964422E-36
         1.880107E-38
  27     8.842717E-41    1.792783E-38    2.960952E-36    4.039621E-34    4.540279E-32    4.128543E-30    2.920580E-28    1.473237E-26    3.924071E-25   -8.767789E-24
        -1.446844E-21   -6.934148E-20   -1.752385E-18   -2.787106E-17   -3.861273E-16   -2.414144E-15   -3.861360E-16   -2.787416E-17   -1.753347E-18   -6.951573E-20
        -1.462638E-21   -9.541613E-24    3.705260E-25    1.437455E-26    2.892978E-28    4.143710E-30    4.616840E-32    4.162158E-34    3.090828E-36    1.895120E-38
         9.458820E-41
  28     3.119267E-43    8.531467E-41    1.792052E-38    2.996325E-36    4.037462E-34    4.363365E-32    3.696898E-30    2.330504E-28    9.543196E-27    1.163259E-25
        -1.345466E-23   -9.396457E-22   -2.698468E-20   -5.288001E-19   -8.090054E-18   -6.725890E-17   -8.090316E-18   -5.289139E-19   -2.701278E-20   -9.436847E-22
        -1.375060E-23    1.049847E-25    9.303324E-27    2.307576E-28    3.708937E-30    4.436670E-32    4.162158E-34    3.131422E-36    1.897498E-38    9.142478E-41
         3.378342E-43
  29     7.144351E-46    2.951133E-43    8.409376E-41    1.790804E-38    2.957120E-36    3.831282E-34    3.861122E-32    2.927098E-30    1.534696E-28    4.184139E-27
        -6.586243E-26   -9.910635E-24   -2.914031E-22   -7.066772E-21   -1.237714E-19   -1.589494E-18   -1.237775E-19   -7.069550E-21   -2.920067E-22   -9.983588E-24
        -7.013889E-26    4.058735E-27    1.518332E-28    2.933573E-30    3.922202E-32    3.947617E-34    3.090828E-36    1.897498E-38    9.020965E-41    3.199435E-43
         7.812559E-46
  30     8.250287E-49    6.768932E-46    2.949471E-43    8.520032E-41    1.789046E-38    2.839055E-36    3.433346E-34    3.106329E-32    1.983471E-30    7.568688E-29
         5.742517E-28   -7.464253E-26   -1.521464E-24   -5.961073E-23   -1.358583E-21   -3.318057E-20   -1.358682E-21   -5.966250E-23   -1.531757E-24   -7.569405E-26
         5.255297E-28    7.472120E-29    1.984299E-30    3.149155E-32    3.531655E-34    2.964422E-36    1.895120E-38    9.142478E-41    3.199435E-43    7.405251E-46
         9.081447E-49
  31      0.00000        8.249479E-49    7.138922E-46    3.113943E-43    8.818864E-41    1.777307E-38    2.636926E-36    2.875141E-34    2.212664E-32    1.070875E-30
         2.201599E-29   -1.681479E-28    2.326197E-26    6.543525E-26   -7.823357E-24   -6.480467E-22   -7.824531E-24    6.465174E-26    2.312065E-26   -1.806363E-28
         2.159894E-29    1.068538E-30    2.236050E-32    2.948318E-34    2.746865E-36    1.880107E-38    9.458820E-41    3.378342E-43    7.812559E-46    9.081447E-49
          0.00000    

 CONCENTRATION WILL BE SAVED ON UNIT 1030 AT END OF TIME STEP   22, STRESS PERIOD    1


  MASS BUDGET FOR ENTIRE MODEL AT END OF TIME STEP   22, STRESS PERIOD   1
  ---------------------------------------------------------------------------------------------------

     CUMULATIVE MASS      M       RATES FOR THIS TIME STEP      M/T          PACKAGE NAME    
     ------------------                 ------------------------                     ----------------

           IN:                                      IN:
           ---                                      ---
     STORAGE-AQUEOUS =       4.3589E-03       STORAGE-AQUEOUS =       2.4554E-06     MST                              
                 WEL =  4818000000.0000                   WEL =     8640000.0000     SSM_WEL-1                        
                 CHD =           0.0000                   CHD =           0.0000     SSM_CHD-1                        

            TOTAL IN =  4818000000.0044              TOTAL IN =     8640000.0000

          OUT:                                     OUT:
          ----                                     ----
     STORAGE-AQUEOUS =  4818000000.0043       STORAGE-AQUEOUS =     8640000.0000     MST                              
                 WEL =           0.0000                   WEL =           0.0000     SSM_WEL-1                        
                 CHD =       7.5562E-18                   CHD =       8.1659E-22     SSM_CHD-1                        

           TOTAL OUT =  4818000000.0043             TOTAL OUT =     8640000.0000

            IN - OUT =       4.1008E-05              IN - OUT =      -1.0617E-07

 PERCENT DISCREPANCY =           0.00     PERCENT DISCREPANCY =          -0.00




         TIME SUMMARY AT END OF TIME STEP   22 IN STRESS PERIOD    1
                    SECONDS     MINUTES      HOURS       DAYS        YEARS
                    -----------------------------------------------------------
   TIME STEP LENGTH 2.19000E+06  36500.      608.33      25.347     6.93969E-02
 STRESS PERIOD TIME 4.81800E+07 8.03000E+05  13383.      557.64      1.5267    
         TOTAL TIME 4.81800E+07 8.03000E+05  13383.      557.64      1.5267    


end timestep


start timestep kper="1" kstp="23" mode="normal"

 UBDSV1 SAVING  STORAGE-AQUEOUS ON UNIT   1029 AT TIME STEP     23, STRESS PERIOD      1
 UBDSV1 SAVING     FLOW-JA-FACE ON UNIT   1029 AT TIME STEP     23, STRESS PERIOD      1
 UBDSV06 SAVING  SOURCE-SINK MIX IN MODEL GWT_P06-MF6      PACKAGE GWT_P06-MF6     CONNECTED TO MODEL GWT_P06-MF6      PACKAGE SSM              ON UNIT   1029 AT TIME STEP     23, STRESS PERIOD      1
1
  CONCENTRATION IN LAYER   1 AT END OF TIME STEP  23 IN STRESS PERIOD    1
  ---------------------------------------------------------------------------

                1               2               3               4               5               6               7               8               9              10
               11              12              13              14              15              16              17              18              19              20
               21              22              23              24              25              26              27              28              29              30
               31
 ................................................................................................................................................................................................................................................................................................................................................................................................................................................................................................................
   1      0.00000        1.751883E-48    1.479318E-45    6.270693E-43    1.716608E-40    3.321974E-38    4.694975E-36    4.826551E-34    3.442785E-32    1.469274E-30
         1.683379E-29   -1.137956E-27   -3.468768E-27   -7.007976E-25   -2.314512E-23   -9.199848E-22   -2.314324E-23   -6.998426E-25   -3.303804E-27   -1.122452E-27
         1.747537E-29    1.479181E-30    3.429801E-32    4.751630E-34    4.559754E-36    3.180437E-38    1.620736E-40    5.846506E-43    1.364794E-45    1.603188E-48
          0.00000    
   2     1.751883E-48    1.402226E-45    5.939839E-43    1.660274E-40    3.353376E-38    5.081194E-36    5.813324E-34    4.909633E-32    2.847052E-30    8.857342E-29
        -8.280378E-28   -1.808741E-25   -4.687916E-24   -1.296415E-22   -2.491290E-21   -4.565401E-20   -2.491155E-21   -1.295818E-22   -4.676690E-24   -1.796699E-25
        -7.640046E-28    9.023540E-29    2.861226E-30    4.879776E-32    5.706863E-34    4.921327E-36    3.203395E-38    1.565175E-40    5.533256E-43    1.293164E-45
         1.603042E-48
   3     1.479318E-45    5.939839E-43    1.638551E-40    3.359854E-38    5.305824E-36    6.517634E-34    6.154587E-32    4.285058E-30    1.958820E-28    3.307644E-27
        -2.421699E-25   -1.916437E-23   -5.458075E-22   -1.174184E-20   -1.860015E-19   -2.108551E-18   -1.859940E-19   -1.173880E-20   -5.451790E-22   -1.908549E-23
        -2.370308E-25    3.485826E-27    1.990651E-28    4.302025E-30    6.106948E-32    6.385867E-34    5.129795E-36    3.205256E-38    1.543350E-40    5.530518E-43
         1.363856E-45
   4     6.270693E-43    1.660274E-40    3.359854E-38    5.378037E-36    6.881109E-34    6.984286E-32    5.463863E-30    3.069547E-28    9.844843E-27   -9.235170E-26
        -2.966206E-23   -1.589842E-21   -4.236653E-20   -7.595379E-19   -1.000543E-17   -8.540975E-17   -1.000516E-17   -7.594203E-19   -4.233843E-20   -1.585656E-21
        -2.932701E-23   -7.774129E-26    1.020976E-26    3.118848E-28    5.482374E-30    6.922837E-32    6.734287E-34    5.194830E-36    3.203414E-38    1.563385E-40
         5.837731E-43
   5     1.716608E-40    3.353376E-38    5.305824E-36    6.881109E-34    7.275044E-32    6.126072E-30    3.897742E-28    1.629393E-26    1.796646E-25   -3.117515E-23
        -2.600183E-21   -1.053206E-19   -2.439754E-18   -3.582043E-17   -4.908725E-16   -2.870261E-15   -4.908626E-16   -3.581744E-17   -2.438827E-18   -1.051459E-19
        -2.582962E-21   -3.024553E-23    2.095044E-25    1.687232E-26    3.961656E-28    6.145256E-30    7.207441E-32    6.731648E-34    5.124552E-36    3.197882E-38
         1.617003E-40
   6     3.321974E-38    5.081194E-36    6.517634E-34    6.984286E-32    6.126072E-30    4.203581E-28    2.025095E-26    4.255769E-25   -2.756302E-23   -3.317264E-21
        -1.739562E-19   -5.437610E-18   -1.025114E-16   -1.734240E-15   -1.524023E-14   -6.385401E-14   -1.524000E-14   -1.734156E-15   -1.024919E-16   -5.432302E-18
        -1.732744E-19   -3.271898E-21   -2.577300E-23    4.710396E-25    2.098254E-26    4.274166E-28    6.145415E-30    6.919922E-32    6.378532E-34    4.911434E-36
         3.171363E-38
   7     4.694975E-36    5.813324E-34    6.154587E-32    5.463863E-30    3.897742E-28    2.025095E-26    5.230555E-25   -2.418262E-23   -3.754377E-21   -2.324154E-19
        -8.780278E-18   -2.077562E-16   -4.261659E-15   -5.027178E-14   -2.473342E-13   -8.095230E-13   -2.473321E-13   -5.027102E-14   -4.261435E-15   -2.076570E-16
        -8.760779E-18   -2.307685E-19   -3.674020E-21   -2.168099E-23    5.762424E-25    2.100251E-26    3.964579E-28    5.482970E-30    6.102217E-32    5.696498E-34
         4.546466E-36
   8     4.826551E-34    4.909633E-32    4.285058E-30    3.069547E-28    1.629393E-26    4.255769E-25   -2.418262E-23   -3.906837E-21   -2.675374E-19   -1.149986E-17
        -3.180791E-16   -7.801209E-15   -1.153710E-13   -7.410178E-13   -2.080104E-12    5.613335E-11   -2.080190E-12   -7.410061E-13   -1.153755E-13   -7.801792E-15
        -3.177249E-16   -1.145816E-17   -2.649552E-19   -3.807497E-21   -2.159333E-23    4.739431E-25    1.692140E-26    3.123589E-28    4.303259E-30    4.874982E-32
         4.740676E-34
   9     3.442785E-32    2.847052E-30    1.958820E-28    9.844843E-27    1.796646E-25   -2.756302E-23   -3.754377E-21   -2.675374E-19   -1.257210E-17   -3.908774E-16
        -1.077837E-14   -1.874053E-13   -1.694537E-12    3.646018E-12    5.604543E-10    8.798317E-09    5.604540E-10    3.645246E-12   -1.694375E-12   -1.874475E-13
        -1.078043E-14   -3.902119E-16   -1.251698E-17   -2.648407E-19   -3.667591E-21   -2.557804E-23    2.134539E-25    1.026355E-26    1.995530E-28    2.863059E-30
         3.426561E-32
  10     1.469274E-30    8.857342E-29    3.307644E-27   -9.235170E-26   -3.117515E-23   -3.317264E-21   -2.324154E-19   -1.149986E-17   -3.908774E-16   -1.192664E-14
        -2.385978E-13   -2.715174E-12    2.433676E-11    2.540383E-09    1.036589E-07    2.310872E-06    1.036590E-07    2.540386E-09    2.433333E-11   -2.714280E-12
        -2.387077E-13   -1.192979E-14   -3.901749E-16   -1.145396E-17   -2.305432E-19   -3.264424E-21   -3.007101E-23   -7.474309E-26    3.524262E-27    9.059829E-29
         1.481151E-30
  11     1.683379E-29   -8.280378E-28   -2.421699E-25   -2.966206E-23   -2.600183E-21   -1.739562E-19   -8.780278E-18   -3.180791E-16   -1.077837E-14   -2.385978E-13
        -3.149474E-12    4.834675E-11    6.165056E-09    4.422086E-07    2.146016E-05    4.634325E-04    2.146016E-05    4.422086E-07    6.165076E-09    4.833746E-11
        -3.147792E-12   -2.387202E-13   -1.078082E-14   -3.176685E-16   -8.756890E-18   -1.731194E-19   -2.578669E-21   -2.923714E-23   -2.355792E-25   -7.452600E-28
         1.766687E-29
  12    -1.137956E-27   -1.808741E-25   -1.916437E-23   -1.589842E-21   -1.053206E-19   -5.437610E-18   -2.077562E-16   -7.801209E-15   -1.874053E-13   -2.715174E-12
         4.834675E-11    8.233649E-09    8.739822E-07    6.823317E-05    3.104839E-03    6.262058E-02    3.104839E-03    6.823317E-05    8.739822E-07    8.233682E-09
         4.833676E-11   -2.714084E-12   -1.874620E-13   -7.802041E-15   -2.076319E-16   -5.430831E-18   -1.050938E-19   -1.584328E-21   -1.905897E-23   -1.792434E-25
        -1.116675E-27
  13    -3.468768E-27   -4.687916E-24   -5.458075E-22   -4.236653E-20   -2.439754E-18   -1.025114E-16   -4.261659E-15   -1.153710E-13   -1.694537E-12    2.433676E-11
         6.165056E-09    8.739822E-07    9.733771E-05    6.861756E-03    0.261035         3.56882        0.261035        6.861756E-03    9.733771E-05    8.739822E-07
         6.165076E-09    2.433279E-11   -1.694314E-12   -1.153789E-13   -4.261447E-15   -1.024869E-16   -2.438562E-18   -4.232979E-20   -5.449714E-22   -4.672704E-24
        -3.240511E-27
  14    -7.007976E-25   -1.296415E-22   -1.174184E-20   -7.595379E-19   -3.582043E-17   -1.734240E-15   -5.027178E-14   -7.410178E-13    3.646018E-12    2.540383E-09
         4.422086E-07    6.823317E-05    6.861756E-03    0.372150         7.60337         39.1876         7.60337        0.372150        6.861756E-03    6.823317E-05
         4.422086E-07    2.540387E-09    3.645120E-12   -7.410037E-13   -5.027105E-14   -1.734145E-15   -3.581683E-17   -7.593946E-19   -1.173809E-20   -1.295664E-22
        -6.995664E-25
  15    -2.314512E-23   -2.491290E-21   -1.860015E-19   -1.000543E-17   -4.908725E-16   -1.524023E-14   -2.473342E-13   -2.080104E-12    5.604543E-10    1.036589E-07
         2.146016E-05    3.104839E-03    0.261035         7.60337         48.5380         89.6249         48.5380         7.60337        0.261035        3.104839E-03
         2.146016E-05    1.036590E-07    5.604539E-10   -2.080206E-12   -2.473317E-13   -1.523997E-14   -4.908612E-16   -1.000513E-17   -1.859932E-19   -2.491141E-21
        -2.314304E-23
  16    -9.199848E-22   -4.565401E-20   -2.108551E-18   -8.540975E-17   -2.870261E-15   -6.385401E-14   -8.095230E-13    5.613335E-11    8.798317E-09    2.310872E-06
         4.634325E-04    6.262058E-02     3.56882         39.1876         89.6249         99.9453         89.6249         39.1876         3.56882        6.262058E-02
         4.634325E-04    2.310872E-06    8.798317E-09    5.613335E-11   -8.095230E-13   -6.385401E-14   -2.870261E-15   -8.540975E-17   -2.108551E-18   -4.565401E-20
        -9.199848E-22
  17    -2.314324E-23   -2.491155E-21   -1.859940E-19   -1.000516E-17   -4.908626E-16   -1.524000E-14   -2.473321E-13   -2.080190E-12    5.604540E-10    1.036590E-07
         2.146016E-05    3.104839E-03    0.261035         7.60337         48.5380         89.6249         48.5380         7.60337        0.261035        3.104839E-03
         2.146016E-05    1.036589E-07    5.604543E-10   -2.080104E-12   -2.473342E-13   -1.524023E-14   -4.908725E-16   -1.000543E-17   -1.860014E-19   -2.491290E-21
        -2.314512E-23
  18    -6.998426E-25   -1.295818E-22   -1.173880E-20   -7.594203E-19   -3.581744E-17   -1.734156E-15   -5.027102E-14   -7.410061E-13    3.645246E-12    2.540386E-09
         4.422086E-07    6.823317E-05    6.861756E-03    0.372150         7.60337         39.1876         7.60337        0.372150        6.861756E-03    6.823317E-05
         4.422086E-07    2.540383E-09    3.646018E-12   -7.410177E-13   -5.027178E-14   -1.734240E-15   -3.582043E-17   -7.595379E-19   -1.174184E-20   -1.296415E-22
        -7.007976E-25
  19    -3.303804E-27   -4.676690E-24   -5.451790E-22   -4.233843E-20   -2.438827E-18   -1.024919E-16   -4.261435E-15   -1.153755E-13   -1.694375E-12    2.433333E-11
         6.165076E-09    8.739822E-07    9.733771E-05    6.861756E-03    0.261035         3.56882        0.261035        6.861756E-03    9.733771E-05    8.739822E-07
         6.165056E-09    2.433676E-11   -1.694537E-12   -1.153710E-13   -4.261659E-15   -1.025114E-16   -2.439754E-18   -4.236653E-20   -5.458075E-22   -4.687917E-24
        -3.468771E-27
  20    -1.122452E-27   -1.796699E-25   -1.908549E-23   -1.585656E-21   -1.051459E-19   -5.432302E-18   -2.076570E-16   -7.801792E-15   -1.874475E-13   -2.714280E-12
         4.833746E-11    8.233682E-09    8.739822E-07    6.823317E-05    3.104839E-03    6.262058E-02    3.104839E-03    6.823317E-05    8.739822E-07    8.233649E-09
         4.834675E-11   -2.715174E-12   -1.874053E-13   -7.801209E-15   -2.077562E-16   -5.437610E-18   -1.053206E-19   -1.589842E-21   -1.916437E-23   -1.808741E-25
        -1.137956E-27
  21     1.747537E-29   -7.640046E-28   -2.370308E-25   -2.932701E-23   -2.582962E-21   -1.732744E-19   -8.760779E-18   -3.177249E-16   -1.078043E-14   -2.387077E-13
        -3.147792E-12    4.833676E-11    6.165076E-09    4.422086E-07    2.146016E-05    4.634325E-04    2.146016E-05    4.422086E-07    6.165056E-09    4.834675E-11
        -3.149474E-12   -2.385978E-13   -1.077837E-14   -3.180791E-16   -8.780278E-18   -1.739562E-19   -2.600183E-21   -2.966206E-23   -2.421699E-25   -8.280379E-28
         1.683379E-29
  22     1.479181E-30    9.023540E-29    3.485826E-27   -7.774129E-26   -3.024553E-23   -3.271898E-21   -2.307685E-19   -1.145816E-17   -3.902119E-16   -1.192979E-14
        -2.387202E-13   -2.714084E-12    2.433279E-11    2.540387E-09    1.036590E-07    2.310872E-06    1.036589E-07    2.540383E-09    2.433676E-11   -2.715174E-12
        -2.385978E-13   -1.192664E-14   -3.908774E-16   -1.149986E-17   -2.324154E-19   -3.317264E-21   -3.117515E-23   -9.235170E-26    3.307644E-27    8.857342E-29
         1.469274E-30
  23     3.429801E-32    2.861226E-30    1.990651E-28    1.020976E-26    2.095044E-25   -2.577300E-23   -3.674020E-21   -2.649552E-19   -1.251698E-17   -3.901749E-16
        -1.078082E-14   -1.874620E-13   -1.694314E-12    3.645120E-12    5.604539E-10    8.798317E-09    5.604543E-10    3.646018E-12   -1.694537E-12   -1.874053E-13
        -1.077837E-14   -3.908774E-16   -1.257210E-17   -2.675374E-19   -3.754377E-21   -2.756302E-23    1.796646E-25    9.844843E-27    1.958820E-28    2.847052E-30
         3.442785E-32
  24     4.751630E-34    4.879776E-32    4.302025E-30    3.118848E-28    1.687232E-26    4.710396E-25   -2.168099E-23   -3.807497E-21   -2.648407E-19   -1.145396E-17
        -3.176685E-16   -7.802041E-15   -1.153789E-13   -7.410037E-13   -2.080206E-12    5.613335E-11   -2.080104E-12   -7.410177E-13   -1.153710E-13   -7.801209E-15
        -3.180791E-16   -1.149986E-17   -2.675374E-19   -3.906837E-21   -2.418262E-23    4.255769E-25    1.629393E-26    3.069547E-28    4.285058E-30    4.909633E-32
         4.826551E-34
  25     4.559754E-36    5.706863E-34    6.106948E-32    5.482374E-30    3.961656E-28    2.098254E-26    5.762424E-25   -2.159333E-23   -3.667591E-21   -2.305432E-19
        -8.756890E-18   -2.076319E-16   -4.261447E-15   -5.027105E-14   -2.473317E-13   -8.095230E-13   -2.473342E-13   -5.027178E-14   -4.261659E-15   -2.077562E-16
        -8.780278E-18   -2.324154E-19   -3.754377E-21   -2.418262E-23    5.230555E-25    2.025095E-26    3.897742E-28    5.463863E-30    6.154587E-32    5.813324E-34
         4.694975E-36
  26     3.180437E-38    4.921327E-36    6.385867E-34    6.922837E-32    6.145256E-30    4.274166E-28    2.100251E-26    4.739431E-25   -2.557804E-23   -3.264424E-21
        -1.731194E-19   -5.430831E-18   -1.024869E-16   -1.734145E-15   -1.523997E-14   -6.385401E-14   -1.524023E-14   -1.734240E-15   -1.025114E-16   -5.437610E-18
        -1.739562E-19   -3.317264E-21   -2.756302E-23    4.255769E-25    2.025095E-26    4.203581E-28    6.126072E-30    6.984286E-32    6.517634E-34    5.081194E-36
         3.321974E-38
  27     1.620736E-40    3.203395E-38    5.129795E-36    6.734287E-34    7.207441E-32    6.145415E-30    3.964579E-28    1.692140E-26    2.134539E-25   -3.007101E-23
        -2.578669E-21   -1.050938E-19   -2.438562E-18   -3.581683E-17   -4.908612E-16   -2.870261E-15   -4.908725E-16   -3.582043E-17   -2.439754E-18   -1.053206E-19
        -2.600183E-21   -3.117515E-23    1.796646E-25    1.629393E-26    3.897742E-28    6.126072E-30    7.275044E-32    6.881109E-34    5.305824E-36    3.353376E-38
         1.716608E-40
  28     5.846506E-43    1.565175E-40    3.205256E-38    5.194830E-36    6.731648E-34    6.919922E-32    5.482970E-30    3.123589E-28    1.026355E-26   -7.474309E-26
        -2.923714E-23   -1.584328E-21   -4.232979E-20   -7.593946E-19   -1.000513E-17   -8.540975E-17   -1.000543E-17   -7.595379E-19   -4.236653E-20   -1.589842E-21
        -2.966206E-23   -9.235170E-26    9.844843E-27    3.069547E-28    5.463863E-30    6.984286E-32    6.881109E-34    5.378037E-36    3.359854E-38    1.660274E-40
         6.270693E-43
  29     1.364794E-45    5.533256E-43    1.543350E-40    3.203414E-38    5.124552E-36    6.378532E-34    6.102217E-32    4.303259E-30    1.995530E-28    3.524262E-27
        -2.355792E-25   -1.905897E-23   -5.449714E-22   -1.173809E-20   -1.859932E-19   -2.108551E-18   -1.860014E-19   -1.174184E-20   -5.458075E-22   -1.916437E-23
        -2.421699E-25    3.307644E-27    1.958820E-28    4.285058E-30    6.154587E-32    6.517634E-34    5.305824E-36    3.359854E-38    1.638551E-40    5.939839E-43
         1.479318E-45
  30     1.603188E-48    1.293164E-45    5.530518E-43    1.563385E-40    3.197882E-38    4.911434E-36    5.696498E-34    4.874982E-32    2.863059E-30    9.059829E-29
        -7.452600E-28   -1.792434E-25   -4.672704E-24   -1.295664E-22   -2.491141E-21   -4.565401E-20   -2.491290E-21   -1.296415E-22   -4.687917E-24   -1.808741E-25
        -8.280379E-28    8.857342E-29    2.847052E-30    4.909633E-32    5.813324E-34    5.081194E-36    3.353376E-38    1.660274E-40    5.939839E-43    1.402226E-45
         1.751883E-48
  31      0.00000        1.603042E-48    1.363856E-45    5.837731E-43    1.617003E-40    3.171363E-38    4.546466E-36    4.740676E-34    3.426561E-32    1.481151E-30
         1.766687E-29   -1.116675E-27   -3.240511E-27   -6.995664E-25   -2.314304E-23   -9.199848E-22   -2.314512E-23   -7.007976E-25   -3.468771E-27   -1.137956E-27
         1.683379E-29    1.469274E-30    3.442785E-32    4.826551E-34    4.694975E-36    3.321974E-38    1.716608E-40    6.270693E-43    1.479318E-45    1.751883E-48
          0.00000    

 CONCENTRATION WILL BE SAVED ON UNIT 1030 AT END OF TIME STEP   23, STRESS PERIOD    1


  MASS BUDGET FOR ENTIRE MODEL AT END OF TIME STEP   23, STRESS PERIOD   1
  ---------------------------------------------------------------------------------------------------

     CUMULATIVE MASS      M       RATES FOR THIS TIME STEP      M/T          PACKAGE NAME    
     ------------------                 ------------------------                     ----------------

           IN:                                      IN:
           ---                                      ---
     STORAGE-AQUEOUS =       4.4440E-03       STORAGE-AQUEOUS =       3.3570E-06     MST                              
                 WEL =  5037000000.0000                   WEL =     8640000.0000     SSM_WEL-1                        
                 CHD =           0.0000                   CHD =           0.0000     SSM_CHD-1                        

            TOTAL IN =  5037000000.0044              TOTAL IN =     8640000.0000

          OUT:                                     OUT:
          ----                                     ----
     STORAGE-AQUEOUS =  5037000000.0044       STORAGE-AQUEOUS =     8640000.0000     MST                              
                 WEL =           0.0000                   WEL =           0.0000     SSM_WEL-1                        
                 CHD =       7.5562E-18                   CHD =       1.4761E-25     SSM_CHD-1                        

           TOTAL OUT =  5037000000.0044             TOTAL OUT =     8640000.0000

            IN - OUT =       3.7193E-05              IN - OUT =      -1.2666E-07

 PERCENT DISCREPANCY =           0.00     PERCENT DISCREPANCY =          -0.00




         TIME SUMMARY AT END OF TIME STEP   23 IN STRESS PERIOD    1
                    SECONDS     MINUTES      HOURS       DAYS        YEARS
                    -----------------------------------------------------------
   TIME STEP LENGTH 2.19000E+06  36500.      608.33      25.347     6.93969E-02
 STRESS PERIOD TIME 5.03700E+07 8.39500E+05  13992.      582.99      1.5961    
         TOTAL TIME 5.03700E+07 8.39500E+05  13992.      582.99      1.5961    


end timestep


start timestep kper="1" kstp="24" mode="normal"

 UBDSV1 SAVING  STORAGE-AQUEOUS ON UNIT   1029 AT TIME STEP     24, STRESS PERIOD      1
 UBDSV1 SAVING     FLOW-JA-FACE ON UNIT   1029 AT TIME STEP     24, STRESS PERIOD      1
 UBDSV06 SAVING  SOURCE-SINK MIX IN MODEL GWT_P06-MF6      PACKAGE GWT_P06-MF6     CONNECTED TO MODEL GWT_P06-MF6      PACKAGE SSM              ON UNIT   1029 AT TIME STEP     24, STRESS PERIOD      1
1
  CONCENTRATION IN LAYER   1 AT END OF TIME STEP  24 IN STRESS PERIOD    1
  ---------------------------------------------------------------------------

                1               2               3               4               5               6               7               8               9              10
               11              12              13              14              15              16              17              18              19              20
               21              22              23              24              25              26              27              28              29              30
               31
 ................................................................................................................................................................................................................................................................................................................................................................................................................................................................................................................
   1      0.00000        3.319740E-48    2.748921E-45    1.140355E-42    3.045005E-40    5.719487E-38    7.788750E-36    7.625687E-34    5.058364E-32    1.846213E-30
        -4.035111E-30   -3.110786E-27   -6.058858E-26   -2.107579E-24   -4.810829E-23   -1.288910E-21   -4.810525E-23   -2.106122E-24   -6.033132E-26   -3.085534E-27
        -2.871266E-30    1.870421E-30    5.063292E-32    7.549544E-34    7.617040E-36    5.520754E-38    2.901004E-40    1.073136E-42    2.558809E-45    3.062184E-48
          0.00000    
   2     3.319740E-48    2.605723E-45    1.080395E-42    2.946854E-40    5.781484E-38    8.453220E-36    9.240290E-34    7.329706E-32    3.829723E-30    8.594053E-29
        -3.909328E-27   -3.674811E-25   -1.002515E-23   -2.379385E-22   -4.083380E-21   -6.194548E-20   -4.083186E-21   -2.378540E-22   -1.000893E-23   -3.656679E-25
        -3.805959E-27    8.900187E-29    3.871098E-30    7.324837E-32    9.128853E-34    8.249277E-36    5.570667E-38    2.803970E-40    1.015960E-42    2.424672E-45
         3.061929E-48
   3     2.748921E-45    1.080395E-42    2.908864E-40    5.796351E-38    8.840064E-36    1.039371E-33    9.262372E-32    5.917632E-30    2.269659E-28    2.640498E-28
        -5.614541E-25   -3.380383E-23   -9.232205E-22   -1.819237E-20   -2.624476E-19   -2.756796E-18   -2.624378E-19   -1.818834E-20   -9.223651E-22   -3.369223E-23
        -5.537883E-25    5.533594E-28    2.329899E-28    5.976975E-30    9.245971E-32    1.025378E-33    8.614951E-36    5.578922E-38    2.765808E-40    1.015523E-42
         2.557242E-45
   4     1.140355E-42    2.946854E-40    5.796351E-38    8.964541E-36    1.098928E-33    1.055220E-31    7.636345E-30    3.752577E-28    7.704854E-27   -5.048229E-25
        -5.562071E-23   -2.529001E-21   -6.302743E-20   -1.050438E-18   -1.231747E-17   -1.068204E-16   -1.231716E-17   -1.050291E-18   -6.299117E-20   -2.523374E-21
        -5.515118E-23   -4.830368E-25    8.298998E-27    3.847415E-28    7.711065E-30    1.052644E-31    1.083236E-33    8.730039E-36    5.576310E-38    2.801264E-40
         1.071736E-42
   5     3.045005E-40    5.781484E-38    8.840064E-36    1.098928E-33    1.100449E-31    8.603815E-30    4.865910E-28    1.529199E-26   -2.864771E-25   -6.785388E-23
        -4.272021E-21   -1.530292E-19   -3.285616E-18   -4.535519E-17   -6.151732E-16   -3.393446E-15   -6.151607E-16   -4.535169E-17   -3.284476E-18   -1.528044E-19
        -4.249087E-21   -6.656055E-23   -2.422211E-25    1.623170E-26    4.989819E-28    8.688016E-30    1.097453E-31    1.082943E-33    8.608150E-36    5.562855E-38
         2.895361E-40
   6     5.719487E-38    8.453220E-36    1.039371E-33    1.055220E-31    8.603815E-30    5.278183E-28    2.000519E-26   -6.652414E-26   -7.271811E-23   -5.707304E-21
        -2.570002E-19   -7.253814E-18   -1.264304E-16   -2.187129E-15   -1.808447E-14   -7.110371E-14   -1.808422E-14   -2.187028E-15   -1.264077E-16   -7.247255E-18
        -2.561347E-19   -5.647404E-21   -7.023962E-23    4.394492E-28    2.119074E-26    5.415385E-28    8.689473E-30    1.052463E-31    1.024568E-33    8.236472E-36
         5.507911E-38
   7     7.788750E-36    9.240290E-34    9.262372E-32    7.636345E-30    4.865910E-28    2.000519E-26    2.337798E-26   -7.409430E-23   -6.668785E-21   -3.438576E-19
        -1.179652E-17   -2.552282E-16   -5.153499E-15   -6.135452E-14   -2.893889E-13   -1.014068E-12   -2.893864E-13   -6.135368E-14   -5.153232E-15   -2.551129E-16
        -1.177294E-17   -3.417942E-19   -6.563208E-21   -7.063930E-23    1.014635E-25    2.122299E-26    4.995619E-28    7.715152E-30    9.243293E-32    9.117542E-34
         7.599918E-36
   8     7.625687E-34    7.329706E-32    5.917632E-30    3.752577E-28    1.529199E-26   -6.652414E-26   -7.409430E-23   -7.013770E-21   -3.929646E-19   -1.437567E-17
        -3.920456E-16   -9.375287E-15   -1.351901E-13   -9.339665E-13   -1.326667E-12    7.554183E-11   -1.326770E-12   -9.339548E-13   -1.351934E-13   -9.375982E-15
        -3.916321E-16   -1.432800E-17   -3.897482E-19   -6.883479E-21   -7.051939E-23    4.674933E-27    1.631124E-26    3.856710E-28    5.982833E-30    7.322715E-32
         7.537873E-34
   9     5.058364E-32    3.829723E-30    2.269659E-28    7.704854E-27   -2.864771E-25   -7.271811E-23   -6.668785E-21   -3.929646E-19   -1.504086E-17   -4.849580E-16
        -1.301776E-14   -2.204597E-13   -2.177697E-12    9.683411E-12    7.634838E-10    1.236222E-08    7.634836E-10    9.682512E-12   -2.177522E-12   -2.204964E-13
        -1.302050E-14   -4.841771E-16   -1.497881E-17   -3.896064E-19   -6.554833E-21   -6.997240E-23   -2.364076E-25    8.386439E-27    2.339264E-28    3.877364E-30
         5.062858E-32
  10     1.846213E-30    8.594053E-29    2.640498E-28   -5.048229E-25   -6.785388E-23   -5.707304E-21   -3.438576E-19   -1.437567E-17   -4.849580E-16   -1.444529E-14
        -2.817341E-13   -3.420621E-12    4.272199E-11    3.557773E-09    1.468388E-07    3.165855E-06    1.468389E-07    3.557779E-09    4.271786E-11   -3.419617E-12
        -2.818349E-13   -1.444960E-14   -4.841330E-16   -1.432311E-17   -3.415142E-19   -5.637635E-21   -6.632041E-23   -4.785998E-25    6.155404E-28    8.967506E-29
         1.875600E-30
  11    -4.035111E-30   -3.909328E-27   -5.614541E-25   -5.562071E-23   -4.272021E-21   -2.570002E-19   -1.179652E-17   -3.920456E-16   -1.301776E-14   -2.817341E-13
        -3.931360E-12    7.930220E-11    8.743593E-09    6.263711E-07    2.940761E-05    6.132953E-04    2.940761E-05    6.263711E-07    8.743621E-09    7.929064E-11
        -3.929443E-12   -2.818474E-13   -1.302101E-14   -3.915652E-16   -1.176829E-17   -2.559401E-19   -4.243438E-21   -5.502681E-23   -5.516511E-25   -3.776083E-27
        -2.527356E-30
  12    -3.110786E-27   -3.674811E-25   -3.380383E-23   -2.529001E-21   -1.530292E-19   -7.253814E-18   -2.552282E-16   -9.375287E-15   -2.204597E-13   -3.420621E-12
         7.930220E-11    1.171648E-08    1.237537E-06    9.341649E-05    4.104557E-03    7.928129E-02    4.104557E-03    9.341649E-05    1.237537E-06    1.171653E-08
         7.928967E-11   -3.419388E-12   -2.205103E-13   -9.376293E-15   -2.550837E-16   -7.245445E-18   -1.527381E-19   -2.521610E-21   -3.365527E-23   -3.650378E-25
        -3.076350E-27
  13    -6.058858E-26   -1.002515E-23   -9.232205E-22   -6.302743E-20   -3.285616E-18   -1.264304E-16   -5.153499E-15   -1.351901E-13   -2.177697E-12    4.272199E-11
         8.743593E-09    1.237537E-06    1.331582E-04    9.044448E-03    0.327654         4.17265        0.327654        9.044448E-03    1.331582E-04    1.237537E-06
         8.743623E-09    4.271714E-11   -2.177451E-12   -1.351965E-13   -5.153246E-15   -1.264020E-16   -3.284155E-18   -6.298019E-20   -9.220879E-22   -1.000332E-23
        -6.023594E-26
  14    -2.107579E-24   -2.379385E-22   -1.819237E-20   -1.050438E-18   -4.535519E-17   -2.187129E-15   -6.135452E-14   -9.339665E-13    9.683411E-12    3.557773E-09
         6.263711E-07    9.341649E-05    9.044448E-03    0.465148         8.77130         41.8025         8.77130        0.465148        9.044448E-03    9.341649E-05
         6.263711E-07    3.557780E-09    9.682356E-12   -9.339520E-13   -6.135372E-14   -2.187015E-15   -4.535099E-17   -1.050260E-18   -1.818741E-20   -2.378329E-22
        -2.105720E-24
  15    -4.810829E-23   -4.083380E-21   -2.624476E-19   -1.231747E-17   -6.151732E-16   -1.808447E-14   -2.893889E-13   -1.326667E-12    7.634838E-10    1.468388E-07
         2.940761E-05    4.104557E-03    0.327654         8.77130         51.4155         90.5956         51.4155         8.77130        0.327654        4.104557E-03
         2.940761E-05    1.468389E-07    7.634836E-10   -1.326790E-12   -2.893860E-13   -1.808419E-14   -6.151590E-16   -1.231712E-17   -2.624367E-19   -4.083164E-21
        -4.810493E-23
  16    -1.288910E-21   -6.194548E-20   -2.756796E-18   -1.068204E-16   -3.393446E-15   -7.110371E-14   -1.014068E-12    7.554183E-11    1.236222E-08    3.165855E-06
         6.132953E-04    7.928129E-02     4.17265         41.8025         90.5956         99.9606         90.5956         41.8025         4.17265        7.928129E-02
         6.132953E-04    3.165855E-06    1.236222E-08    7.554183E-11   -1.014067E-12   -7.110371E-14   -3.393446E-15   -1.068203E-16   -2.756796E-18   -6.194548E-20
        -1.288910E-21
  17    -4.810525E-23   -4.083186E-21   -2.624378E-19   -1.231716E-17   -6.151607E-16   -1.808422E-14   -2.893864E-13   -1.326770E-12    7.634836E-10    1.468389E-07
         2.940761E-05    4.104557E-03    0.327654         8.77130         51.4155         90.5956         51.4155         8.77130        0.327654        4.104557E-03
         2.940761E-05    1.468388E-07    7.634838E-10   -1.326667E-12   -2.893889E-13   -1.808447E-14   -6.151732E-16   -1.231747E-17   -2.624476E-19   -4.083380E-21
        -4.810829E-23
  18    -2.106122E-24   -2.378540E-22   -1.818834E-20   -1.050291E-18   -4.535169E-17   -2.187028E-15   -6.135368E-14   -9.339548E-13    9.682512E-12    3.557779E-09
         6.263711E-07    9.341649E-05    9.044448E-03    0.465148         8.77130         41.8025         8.77130        0.465148        9.044448E-03    9.341649E-05
         6.263711E-07    3.557773E-09    9.683412E-12   -9.339664E-13   -6.135451E-14   -2.187129E-15   -4.535519E-17   -1.050438E-18   -1.819237E-20   -2.379385E-22
        -2.107579E-24
  19    -6.033132E-26   -1.000893E-23   -9.223651E-22   -6.299117E-20   -3.284476E-18   -1.264077E-16   -5.153232E-15   -1.351934E-13   -2.177522E-12    4.271786E-11
         8.743621E-09    1.237537E-06    1.331582E-04    9.044448E-03    0.327654         4.17265        0.327654        9.044448E-03    1.331582E-04    1.237537E-06
         8.743593E-09    4.272199E-11   -2.177697E-12   -1.351901E-13   -5.153499E-15   -1.264304E-16   -3.285616E-18   -6.302743E-20   -9.232205E-22   -1.002515E-23
        -6.058858E-26
  20    -3.085534E-27   -3.656679E-25   -3.369223E-23   -2.523374E-21   -1.528044E-19   -7.247255E-18   -2.551129E-16   -9.375982E-15   -2.204964E-13   -3.419617E-12
         7.929064E-11    1.171653E-08    1.237537E-06    9.341649E-05    4.104557E-03    7.928129E-02    4.104557E-03    9.341649E-05    1.237537E-06    1.171648E-08
         7.930220E-11   -3.420621E-12   -2.204597E-13   -9.375286E-15   -2.552282E-16   -7.253813E-18   -1.530292E-19   -2.529001E-21   -3.380383E-23   -3.674811E-25
        -3.110786E-27
  21    -2.871266E-30   -3.805959E-27   -5.537883E-25   -5.515118E-23   -4.249087E-21   -2.561347E-19   -1.177294E-17   -3.916321E-16   -1.302050E-14   -2.818349E-13
        -3.929443E-12    7.928967E-11    8.743623E-09    6.263711E-07    2.940761E-05    6.132953E-04    2.940761E-05    6.263711E-07    8.743593E-09    7.930220E-11
        -3.931360E-12   -2.817341E-13   -1.301776E-14   -3.920456E-16   -1.179652E-17   -2.570002E-19   -4.272021E-21   -5.562071E-23   -5.614542E-25   -3.909328E-27
        -4.035114E-30
  22     1.870421E-30    8.900187E-29    5.533594E-28   -4.830368E-25   -6.656055E-23   -5.647404E-21   -3.417942E-19   -1.432800E-17   -4.841771E-16   -1.444960E-14
        -2.818474E-13   -3.419388E-12    4.271714E-11    3.557780E-09    1.468389E-07    3.165855E-06    1.468388E-07    3.557773E-09    4.272199E-11   -3.420621E-12
        -2.817341E-13   -1.444529E-14   -4.849580E-16   -1.437567E-17   -3.438576E-19   -5.707304E-21   -6.785388E-23   -5.048229E-25    2.640497E-28    8.594052E-29
         1.846213E-30
  23     5.063292E-32    3.871098E-30    2.329899E-28    8.298998E-27   -2.422211E-25   -7.023962E-23   -6.563208E-21   -3.897482E-19   -1.497881E-17   -4.841330E-16
        -1.302101E-14   -2.205103E-13   -2.177451E-12    9.682356E-12    7.634836E-10    1.236222E-08    7.634838E-10    9.683412E-12   -2.177697E-12   -2.204597E-13
        -1.301776E-14   -4.849580E-16   -1.504086E-17   -3.929646E-19   -6.668785E-21   -7.271811E-23   -2.864771E-25    7.704854E-27    2.269659E-28    3.829723E-30
         5.058364E-32
  24     7.549544E-34    7.324837E-32    5.976975E-30    3.847415E-28    1.623170E-26    4.394491E-28   -7.063930E-23   -6.883479E-21   -3.896064E-19   -1.432311E-17
        -3.915652E-16   -9.376293E-15   -1.351965E-13   -9.339520E-13   -1.326790E-12    7.554183E-11   -1.326667E-12   -9.339664E-13   -1.351901E-13   -9.375286E-15
        -3.920456E-16   -1.437567E-17   -3.929646E-19   -7.013770E-21   -7.409430E-23   -6.652413E-26    1.529199E-26    3.752577E-28    5.917632E-30    7.329706E-32
         7.625687E-34
  25     7.617040E-36    9.128853E-34    9.245971E-32    7.711065E-30    4.989819E-28    2.119074E-26    1.014635E-25   -7.051939E-23   -6.554833E-21   -3.415142E-19
        -1.176829E-17   -2.550837E-16   -5.153246E-15   -6.135372E-14   -2.893860E-13   -1.014067E-12   -2.893889E-13   -6.135451E-14   -5.153499E-15   -2.552282E-16
        -1.179652E-17   -3.438576E-19   -6.668785E-21   -7.409430E-23    2.337799E-26    2.000519E-26    4.865910E-28    7.636345E-30    9.262372E-32    9.240290E-34
         7.788750E-36
  26     5.520754E-38    8.249277E-36    1.025378E-33    1.052644E-31    8.688016E-30    5.415385E-28    2.122299E-26    4.674933E-27   -6.997240E-23   -5.637635E-21
        -2.559401E-19   -7.245445E-18   -1.264020E-16   -2.187015E-15   -1.808419E-14   -7.110371E-14   -1.808447E-14   -2.187129E-15   -1.264304E-16   -7.253813E-18
        -2.570002E-19   -5.707304E-21   -7.271811E-23   -6.652413E-26    2.000519E-26    5.278183E-28    8.603815E-30    1.055220E-31    1.039371E-33    8.453221E-36
         5.719487E-38
  27     2.901004E-40    5.570667E-38    8.614951E-36    1.083236E-33    1.097453E-31    8.689473E-30    4.995619E-28    1.631124E-26   -2.364076E-25   -6.632041E-23
        -4.243438E-21   -1.527381E-19   -3.284155E-18   -4.535099E-17   -6.151590E-16   -3.393446E-15   -6.151732E-16   -4.535519E-17   -3.285616E-18   -1.530292E-19
        -4.272021E-21   -6.785388E-23   -2.864771E-25    1.529199E-26    4.865910E-28    8.603815E-30    1.100449E-31    1.098928E-33    8.840064E-36    5.781484E-38
         3.045005E-40
  28     1.073136E-42    2.803970E-40    5.578922E-38    8.730039E-36    1.082943E-33    1.052463E-31    7.715152E-30    3.856710E-28    8.386439E-27   -4.785998E-25
        -5.502681E-23   -2.521610E-21   -6.298019E-20   -1.050260E-18   -1.231712E-17   -1.068203E-16   -1.231747E-17   -1.050438E-18   -6.302743E-20   -2.529001E-21
        -5.562071E-23   -5.048229E-25    7.704854E-27    3.752577E-28    7.636345E-30    1.055220E-31    1.098928E-33    8.964541E-36    5.796351E-38    2.946854E-40
         1.140355E-42
  29     2.558809E-45    1.015960E-42    2.765808E-40    5.576310E-38    8.608150E-36    1.024568E-33    9.243293E-32    5.982833E-30    2.339264E-28    6.155404E-28
        -5.516511E-25   -3.365527E-23   -9.220879E-22   -1.818741E-20   -2.624367E-19   -2.756796E-18   -2.624476E-19   -1.819237E-20   -9.232205E-22   -3.380383E-23
        -5.614542E-25    2.640497E-28    2.269659E-28    5.917632E-30    9.262372E-32    1.039371E-33    8.840064E-36    5.796351E-38    2.908864E-40    1.080395E-42
         2.748921E-45
  30     3.062184E-48    2.424672E-45    1.015523E-42    2.801264E-40    5.562855E-38    8.236472E-36    9.117542E-34    7.322715E-32    3.877364E-30    8.967506E-29
        -3.776083E-27   -3.650378E-25   -1.000332E-23   -2.378329E-22   -4.083164E-21   -6.194548E-20   -4.083380E-21   -2.379385E-22   -1.002515E-23   -3.674811E-25
        -3.909328E-27    8.594052E-29    3.829723E-30    7.329706E-32    9.240290E-34    8.453221E-36    5.781484E-38    2.946854E-40    1.080395E-42    2.605723E-45
         3.319740E-48
  31      0.00000        3.061929E-48    2.557242E-45    1.071736E-42    2.895361E-40    5.507911E-38    7.599918E-36    7.537873E-34    5.062858E-32    1.875600E-30
        -2.527356E-30   -3.076350E-27   -6.023594E-26   -2.105720E-24   -4.810493E-23   -1.288910E-21   -4.810829E-23   -2.107579E-24   -6.058858E-26   -3.110786E-27
        -4.035114E-30    1.846213E-30    5.058364E-32    7.625687E-34    7.788750E-36    5.719487E-38    3.045005E-40    1.140355E-42    2.748921E-45    3.319740E-48
          0.00000    

 CONCENTRATION WILL BE SAVED ON UNIT 1030 AT END OF TIME STEP   24, STRESS PERIOD    1


  MASS BUDGET FOR ENTIRE MODEL AT END OF TIME STEP   24, STRESS PERIOD   1
  ---------------------------------------------------------------------------------------------------

     CUMULATIVE MASS      M       RATES FOR THIS TIME STEP      M/T          PACKAGE NAME    
     ------------------                 ------------------------                     ----------------

           IN:                                      IN:
           ---                                      ---
     STORAGE-AQUEOUS =       4.5364E-03       STORAGE-AQUEOUS =       3.6459E-06     MST                              
                 WEL =  5256000000.0000                   WEL =     8640000.0000     SSM_WEL-1                        
                 CHD =           0.0000                   CHD =           0.0000     SSM_CHD-1                        

            TOTAL IN =  5256000000.0045              TOTAL IN =     8640000.0000

          OUT:                                     OUT:
          ----                                     ----
     STORAGE-AQUEOUS =  5256000000.0045       STORAGE-AQUEOUS =     8640000.0000     MST                              
                 WEL =           0.0000                   WEL =           0.0000     SSM_WEL-1                        
                 CHD =       7.5562E-18                   CHD =       1.3882E-26     SSM_CHD-1                        

           TOTAL OUT =  5256000000.0045             TOTAL OUT =     8640000.0000

            IN - OUT =       3.3379E-05              IN - OUT =      -1.6950E-07

 PERCENT DISCREPANCY =           0.00     PERCENT DISCREPANCY =          -0.00




         TIME SUMMARY AT END OF TIME STEP   24 IN STRESS PERIOD    1
                    SECONDS     MINUTES      HOURS       DAYS        YEARS
                    -----------------------------------------------------------
   TIME STEP LENGTH 2.19000E+06  36500.      608.33      25.347     6.93969E-02
 STRESS PERIOD TIME 5.25600E+07 8.76000E+05  14600.      608.33      1.6655    
         TOTAL TIME 5.25600E+07 8.76000E+05  14600.      608.33      1.6655    


end timestep


start timestep kper="1" kstp="25" mode="normal"

 UBDSV1 SAVING  STORAGE-AQUEOUS ON UNIT   1029 AT TIME STEP     25, STRESS PERIOD      1
 UBDSV1 SAVING     FLOW-JA-FACE ON UNIT   1029 AT TIME STEP     25, STRESS PERIOD      1
 UBDSV06 SAVING  SOURCE-SINK MIX IN MODEL GWT_P06-MF6      PACKAGE GWT_P06-MF6     CONNECTED TO MODEL GWT_P06-MF6      PACKAGE SSM              ON UNIT   1029 AT TIME STEP     25, STRESS PERIOD      1
1
  CONCENTRATION IN LAYER   1 AT END OF TIME STEP  25 IN STRESS PERIOD    1
  ---------------------------------------------------------------------------

                1               2               3               4               5               6               7               8               9              10
               11              12              13              14              15              16              17              18              19              20
               21              22              23              24              25              26              27              28              29              30
               31
 ................................................................................................................................................................................................................................................................................................................................................................................................................................................................................................................
   1      0.00000        6.176493E-48    5.008784E-45    2.029605E-42    5.273265E-40    9.583955E-38    1.252405E-35    1.160073E-33    7.042924E-32    2.016095E-30
        -5.639987E-29   -6.779866E-27   -1.660975E-25   -4.458319E-24   -8.610403E-23   -1.782677E-21   -8.609937E-23   -4.456174E-24   -1.657105E-25   -6.740383E-27
        -5.442676E-29    2.064662E-30    7.085670E-32    1.154454E-33    1.232326E-35    9.317922E-38    5.064774E-40    1.926476E-42    4.702709E-45    5.743681E-48
          0.00000    
   2     6.176493E-48    4.747962E-45    1.923238E-42    5.106214E-40    9.700969E-38    1.363313E-35    1.415793E-33    1.043303E-31    4.740791E-30    4.583947E-29
        -9.929124E-27   -6.782519E-25   -1.847649E-23   -3.972930E-22   -6.236907E-21   -8.292030E-20   -6.236637E-21   -3.971765E-22   -1.845365E-23   -6.756018E-25
        -9.768854E-27    5.106709E-29    4.828891E-30    1.048321E-31    1.406787E-33    1.339263E-35    9.418278E-38    4.899255E-40    1.824369E-42    4.456466E-45
         5.743250E-48
   3     5.008784E-45    1.923238E-42    5.041325E-40    9.732044E-38    1.427943E-35    1.598615E-33    1.332559E-31    7.641206E-30    2.189688E-28   -6.882213E-27
        -1.106658E-24   -5.611443E-23   -1.462540E-21   -2.680328E-20   -3.560107E-19   -3.553198E-18   -3.559982E-19   -2.679804E-20   -1.461398E-21   -5.596034E-23
        -1.095543E-24   -6.432980E-27    2.293676E-28    7.773734E-30    1.338003E-31    1.586837E-33    1.401280E-35    9.440234E-38    4.834076E-40    1.823695E-42
         4.700170E-45
   4     2.029605E-42    5.106214E-40    9.732044E-38    1.448758E-35    1.693061E-33    1.525887E-31    1.004114E-29    4.054179E-28    4.897972E-28   -1.252408E-24
        -9.556045E-23   -3.849427E-21   -9.012222E-20   -1.404777E-18   -1.510023E-17   -1.314424E-16   -1.509986E-17   -1.404597E-18   -9.007610E-20   -3.842037E-21
        -9.491681E-23   -1.220916E-24    1.409531E-27    4.218919E-28    1.021327E-29    1.531541E-31    1.679624E-33    1.420940E-35    9.436689E-38    4.895306E-40
         1.924316E-42
   5     5.273265E-40    9.700969E-38    1.427943E-35    1.693061E-33    1.593724E-31    1.139536E-29    5.467773E-28    8.502377E-27   -1.187029E-24   -1.253216E-22
        -6.600098E-21   -2.151983E-19   -4.313549E-18   -5.539853E-17   -7.624575E-16   -3.913317E-15   -7.624421E-16   -5.539448E-17   -4.312165E-18   -2.149168E-19
        -6.570167E-21   -1.235602E-22   -1.123586E-24    9.953038E-27    5.683708E-28    1.159239E-29    1.599462E-31    1.679347E-33    1.400455E-35    9.407684E-38
         5.056544E-40
   6     9.583955E-38    1.363313E-35    1.598615E-33    1.525887E-31    1.139536E-29    5.993238E-28    1.359080E-26   -1.063535E-24   -1.444646E-22   -9.013068E-21
        -3.581280E-19   -9.466287E-18   -1.540323E-16   -2.575147E-15   -2.145822E-14   -7.924573E-14   -2.145795E-14   -2.575031E-15   -1.540063E-16   -9.458472E-18
        -3.570571E-19   -8.935444E-21   -1.411033E-22   -9.678924E-25    1.541923E-26    6.232594E-28    1.159611E-29    1.531634E-31    1.586083E-33    1.337715E-35
         9.300534E-38
   7     1.252405E-35    1.415793E-33    1.332559E-31    1.004114E-29    5.467773E-28    1.359080E-26   -1.006846E-24   -1.539532E-22   -1.068211E-20   -4.761512E-19
        -1.416532E-17   -3.118776E-16   -6.140826E-15   -7.105952E-14   -3.426697E-13   -1.174520E-12   -3.426667E-13   -7.105851E-14   -6.140533E-15   -3.117407E-16
        -1.413901E-17   -4.736166E-19   -1.054580E-20   -1.492787E-22   -8.953821E-25    1.546861E-26    5.693873E-28    1.022341E-29    1.338230E-31    1.405763E-33
         1.230271E-35
   8     1.160073E-33    1.043303E-31    7.641206E-30    4.054179E-28    8.502377E-27   -1.063535E-24   -1.539532E-22   -1.128554E-20   -5.421408E-19   -1.709034E-17
        -4.833616E-16   -1.123502E-14   -1.585384E-13   -1.217647E-12   -9.080057E-14    1.001983E-10   -9.092347E-14   -1.217636E-12   -1.585398E-13   -1.123584E-14
        -4.828828E-16   -1.703694E-17   -5.382022E-19   -1.111753E-20   -1.491179E-22   -9.619076E-25    1.007492E-26    4.235127E-28    7.787575E-30    1.048724E-31
         1.153459E-33
   9     7.042924E-32    4.740791E-30    2.189688E-28    4.897972E-28   -1.187029E-24   -1.444646E-22   -1.068211E-20   -5.421408E-19   -1.805046E-17   -5.988610E-16
        -1.569181E-14   -2.601884E-13   -2.687409E-12    1.833376E-11    1.037603E-09    1.721702E-08    1.037603E-09    1.833273E-11   -2.687226E-12   -2.602180E-13
        -1.569528E-14   -5.979664E-16   -1.798065E-17   -5.380291E-19   -1.053506E-20   -1.407442E-22   -1.115340E-24    1.543972E-27    2.309871E-28    4.842750E-30
         7.091342E-32
  10     2.016095E-30    4.583947E-29   -6.882213E-27   -1.252408E-24   -1.253216E-22   -9.013068E-21   -4.761512E-19   -1.709034E-17   -5.988610E-16   -1.745572E-14
        -3.326460E-13   -4.069201E-12    6.787420E-11    4.959921E-09    2.056439E-07    4.290103E-06    2.056439E-07    4.959929E-09    6.786939E-11   -4.068100E-12
        -3.327340E-13   -1.746126E-14   -5.979154E-16   -1.703147E-17   -4.732743E-19   -8.922886E-21   -1.232365E-22   -1.214557E-24   -6.337017E-27    5.221642E-29
         2.075290E-30
  11    -5.639987E-29   -9.929124E-27   -1.106658E-24   -9.556045E-23   -6.600098E-21   -3.581280E-19   -1.416532E-17   -4.833616E-16   -1.569181E-14   -3.326460E-13
        -4.620275E-12    1.215717E-10    1.232231E-08    8.770098E-07    3.986820E-05    8.035830E-04    3.986820E-05    8.770098E-07    1.232234E-08    1.215580E-10
        -4.618145E-12   -3.327462E-13   -1.569593E-14   -4.828046E-16   -1.413379E-17   -3.568183E-19   -6.562872E-21   -9.474832E-23   -1.092482E-24   -9.723092E-27
        -5.384977E-29
  12    -6.779866E-27   -6.782519E-25   -5.611443E-23   -3.849427E-21   -2.151983E-19   -9.466287E-18   -3.118776E-16   -1.123502E-14   -2.601884E-13   -4.069201E-12
         1.215717E-10    1.655753E-08    1.732084E-06    1.265330E-04    5.372285E-03    9.940567E-02    5.372285E-03    1.265330E-04    1.732084E-06    1.655760E-08
         1.215567E-10   -4.067840E-12   -2.602309E-13   -1.123623E-14   -3.117061E-16   -9.456336E-18   -2.148346E-19   -3.839748E-21   -5.591002E-23   -6.746964E-25
        -6.726316E-27
  13    -1.660975E-25   -1.847649E-23   -1.462540E-21   -9.012222E-20   -4.313549E-18   -1.540323E-16   -6.140826E-15   -1.585384E-13   -2.687409E-12    6.787420E-11
         1.232231E-08    1.732084E-06    1.802204E-04    1.180279E-02    0.407170         4.83430        0.407170        1.180279E-02    1.802204E-04    1.732084E-06
         1.232235E-08    6.786848E-11   -2.687147E-12   -1.585425E-13   -6.140549E-15   -1.539998E-16   -4.311779E-18   -9.006232E-20   -1.461034E-21   -1.844591E-23
        -1.655710E-25
  14    -4.458319E-24   -3.972930E-22   -2.680328E-20   -1.404777E-18   -5.539853E-17   -2.575147E-15   -7.105952E-14   -1.217647E-12    1.833376E-11    4.959921E-09
         8.770098E-07    1.265330E-04    1.180279E-02    0.575640         10.0283         44.3573         10.0283        0.575640        1.180279E-02    1.265330E-04
         8.770098E-07    4.959930E-09    1.833254E-11   -1.217633E-12   -7.105853E-14   -2.575014E-15   -5.539367E-17   -1.404558E-18   -2.679685E-20   -3.971481E-22
        -4.455604E-24
  15    -8.610403E-23   -6.236907E-21   -3.560107E-19   -1.510023E-17   -7.624575E-16   -2.145822E-14   -3.426697E-13   -9.080057E-14    1.037603E-09    2.056439E-07
         3.986820E-05    5.372285E-03    0.407170         10.0283         54.1831         91.4529         54.1831         10.0283        0.407170        5.372285E-03
         3.986820E-05    2.056439E-07    1.037603E-09   -9.094643E-14   -3.426663E-13   -2.145791E-14   -7.624400E-16   -1.509981E-17   -3.559968E-19   -6.236607E-21
        -8.609887E-23
  16    -1.782677E-21   -8.292030E-20   -3.553198E-18   -1.314424E-16   -3.913317E-15   -7.924573E-14   -1.174520E-12    1.001983E-10    1.721702E-08    4.290103E-06
         8.035830E-04    9.940567E-02     4.83430         44.3573         91.4529         99.9716         91.4529         44.3573         4.83430        9.940567E-02
         8.035830E-04    4.290103E-06    1.721702E-08    1.001983E-10   -1.174520E-12   -7.924573E-14   -3.913316E-15   -1.314424E-16   -3.553198E-18   -8.292030E-20
        -1.782677E-21
  17    -8.609937E-23   -6.236637E-21   -3.559982E-19   -1.509986E-17   -7.624421E-16   -2.145795E-14   -3.426667E-13   -9.092347E-14    1.037603E-09    2.056439E-07
         3.986820E-05    5.372285E-03    0.407170         10.0283         54.1831         91.4529         54.1831         10.0283        0.407170        5.372285E-03
         3.986820E-05    2.056439E-07    1.037603E-09   -9.080024E-14   -3.426697E-13   -2.145822E-14   -7.624575E-16   -1.510023E-17   -3.560107E-19   -6.236907E-21
        -8.610403E-23
  18    -4.456174E-24   -3.971765E-22   -2.679804E-20   -1.404597E-18   -5.539448E-17   -2.575031E-15   -7.105851E-14   -1.217636E-12    1.833273E-11    4.959929E-09
         8.770098E-07    1.265330E-04    1.180279E-02    0.575640         10.0283         44.3573         10.0283        0.575640        1.180279E-02    1.265330E-04
         8.770098E-07    4.959921E-09    1.833376E-11   -1.217647E-12   -7.105952E-14   -2.575147E-15   -5.539853E-17   -1.404777E-18   -2.680328E-20   -3.972930E-22
        -4.458319E-24
  19    -1.657105E-25   -1.845365E-23   -1.461398E-21   -9.007610E-20   -4.312165E-18   -1.540063E-16   -6.140533E-15   -1.585398E-13   -2.687226E-12    6.786939E-11
         1.232234E-08    1.732084E-06    1.802204E-04    1.180279E-02    0.407170         4.83430        0.407170        1.180279E-02    1.802204E-04    1.732084E-06
         1.232231E-08    6.787420E-11   -2.687409E-12   -1.585384E-13   -6.140826E-15   -1.540323E-16   -4.313549E-18   -9.012222E-20   -1.462540E-21   -1.847649E-23
        -1.660975E-25
  20    -6.740383E-27   -6.756018E-25   -5.596034E-23   -3.842037E-21   -2.149168E-19   -9.458472E-18   -3.117407E-16   -1.123584E-14   -2.602180E-13   -4.068100E-12
         1.215580E-10    1.655760E-08    1.732084E-06    1.265330E-04    5.372285E-03    9.940567E-02    5.372285E-03    1.265330E-04    1.732084E-06    1.655753E-08
         1.215717E-10   -4.069201E-12   -2.601884E-13   -1.123502E-14   -3.118776E-16   -9.466287E-18   -2.151983E-19   -3.849427E-21   -5.611443E-23   -6.782519E-25
        -6.779867E-27
  21    -5.442676E-29   -9.768854E-27   -1.095543E-24   -9.491681E-23   -6.570167E-21   -3.570571E-19   -1.413901E-17   -4.828828E-16   -1.569528E-14   -3.327340E-13
        -4.618145E-12    1.215567E-10    1.232235E-08    8.770098E-07    3.986820E-05    8.035830E-04    3.986820E-05    8.770098E-07    1.232231E-08    1.215717E-10
        -4.620275E-12   -3.326460E-13   -1.569181E-14   -4.833616E-16   -1.416532E-17   -3.581280E-19   -6.600098E-21   -9.556045E-23   -1.106658E-24   -9.929124E-27
        -5.639987E-29
  22     2.064662E-30    5.106709E-29   -6.432980E-27   -1.220916E-24   -1.235602E-22   -8.935444E-21   -4.736166E-19   -1.703694E-17   -5.979664E-16   -1.746126E-14
        -3.327462E-13   -4.067840E-12    6.786848E-11    4.959930E-09    2.056439E-07    4.290103E-06    2.056439E-07    4.959921E-09    6.787420E-11   -4.069201E-12
        -3.326460E-13   -1.745572E-14   -5.988611E-16   -1.709034E-17   -4.761512E-19   -9.013068E-21   -1.253216E-22   -1.252408E-24   -6.882213E-27    4.583947E-29
         2.016095E-30
  23     7.085670E-32    4.828891E-30    2.293676E-28    1.409531E-27   -1.123586E-24   -1.411033E-22   -1.054580E-20   -5.382022E-19   -1.798065E-17   -5.979154E-16
        -1.569593E-14   -2.602309E-13   -2.687147E-12    1.833254E-11    1.037603E-09    1.721702E-08    1.037603E-09    1.833376E-11   -2.687409E-12   -2.601884E-13
        -1.569181E-14   -5.988611E-16   -1.805046E-17   -5.421408E-19   -1.068211E-20   -1.444646E-22   -1.187029E-24    4.897972E-28    2.189688E-28    4.740791E-30
         7.042924E-32
  24     1.154454E-33    1.048321E-31    7.773734E-30    4.218919E-28    9.953038E-27   -9.678924E-25   -1.492787E-22   -1.111753E-20   -5.380291E-19   -1.703147E-17
        -4.828046E-16   -1.123623E-14   -1.585425E-13   -1.217633E-12   -9.094643E-14    1.001983E-10   -9.080024E-14   -1.217647E-12   -1.585384E-13   -1.123502E-14
        -4.833616E-16   -1.709034E-17   -5.421408E-19   -1.128554E-20   -1.539532E-22   -1.063535E-24    8.502377E-27    4.054179E-28    7.641206E-30    1.043303E-31
         1.160073E-33
  25     1.232326E-35    1.406787E-33    1.338003E-31    1.021327E-29    5.683708E-28    1.541923E-26   -8.953821E-25   -1.491179E-22   -1.053506E-20   -4.732743E-19
        -1.413379E-17   -3.117061E-16   -6.140549E-15   -7.105853E-14   -3.426663E-13   -1.174520E-12   -3.426697E-13   -7.105952E-14   -6.140826E-15   -3.118776E-16
        -1.416532E-17   -4.761512E-19   -1.068211E-20   -1.539532E-22   -1.006846E-24    1.359080E-26    5.467773E-28    1.004114E-29    1.332559E-31    1.415793E-33
         1.252405E-35
  26     9.317922E-38    1.339263E-35    1.586837E-33    1.531541E-31    1.159239E-29    6.232594E-28    1.546861E-26   -9.619076E-25   -1.407442E-22   -8.922886E-21
        -3.568183E-19   -9.456336E-18   -1.539998E-16   -2.575014E-15   -2.145791E-14   -7.924573E-14   -2.145822E-14   -2.575147E-15   -1.540323E-16   -9.466287E-18
        -3.581280E-19   -9.013068E-21   -1.444646E-22   -1.063535E-24    1.359080E-26    5.993238E-28    1.139536E-29    1.525887E-31    1.598615E-33    1.363313E-35
         9.583955E-38
  27     5.064774E-40    9.418278E-38    1.401280E-35    1.679624E-33    1.599462E-31    1.159611E-29    5.693873E-28    1.007492E-26   -1.115340E-24   -1.232365E-22
        -6.562872E-21   -2.148346E-19   -4.311779E-18   -5.539367E-17   -7.624400E-16   -3.913316E-15   -7.624575E-16   -5.539853E-17   -4.313549E-18   -2.151983E-19
        -6.600098E-21   -1.253216E-22   -1.187029E-24    8.502377E-27    5.467773E-28    1.139536E-29    1.593724E-31    1.693061E-33    1.427943E-35    9.700970E-38
         5.273265E-40
  28     1.926476E-42    4.899255E-40    9.440234E-38    1.420940E-35    1.679347E-33    1.531634E-31    1.022341E-29    4.235127E-28    1.543972E-27   -1.214557E-24
        -9.474832E-23   -3.839748E-21   -9.006232E-20   -1.404558E-18   -1.509981E-17   -1.314424E-16   -1.510023E-17   -1.404777E-18   -9.012222E-20   -3.849427E-21
        -9.556045E-23   -1.252408E-24    4.897972E-28    4.054179E-28    1.004114E-29    1.525887E-31    1.693061E-33    1.448758E-35    9.732044E-38    5.106215E-40
         2.029605E-42
  29     4.702709E-45    1.824369E-42    4.834076E-40    9.436689E-38    1.400455E-35    1.586083E-33    1.338230E-31    7.787575E-30    2.309871E-28   -6.337017E-27
        -1.092482E-24   -5.591002E-23   -1.461034E-21   -2.679685E-20   -3.559968E-19   -3.553198E-18   -3.560107E-19   -2.680328E-20   -1.462540E-21   -5.611443E-23
        -1.106658E-24   -6.882213E-27    2.189688E-28    7.641206E-30    1.332559E-31    1.598615E-33    1.427943E-35    9.732044E-38    5.041325E-40    1.923238E-42
         5.008784E-45
  30     5.743681E-48    4.456466E-45    1.823695E-42    4.895306E-40    9.407684E-38    1.337715E-35    1.405763E-33    1.048724E-31    4.842750E-30    5.221642E-29
        -9.723092E-27   -6.746964E-25   -1.844591E-23   -3.971481E-22   -6.236607E-21   -8.292030E-20   -6.236907E-21   -3.972930E-22   -1.847649E-23   -6.782519E-25
        -9.929124E-27    4.583947E-29    4.740791E-30    1.043303E-31    1.415793E-33    1.363313E-35    9.700970E-38    5.106215E-40    1.923238E-42    4.747962E-45
         6.176493E-48
  31      0.00000        5.743250E-48    4.700170E-45    1.924316E-42    5.056544E-40    9.300534E-38    1.230271E-35    1.153459E-33    7.091342E-32    2.075290E-30
        -5.384977E-29   -6.726316E-27   -1.655710E-25   -4.455604E-24   -8.609887E-23   -1.782677E-21   -8.610403E-23   -4.458319E-24   -1.660975E-25   -6.779867E-27
        -5.639987E-29    2.016095E-30    7.042924E-32    1.160073E-33    1.252405E-35    9.583955E-38    5.273265E-40    2.029605E-42    5.008784E-45    6.176493E-48
          0.00000    

 CONCENTRATION WILL BE SAVED ON UNIT 1030 AT END OF TIME STEP   25, STRESS PERIOD    1


  MASS BUDGET FOR ENTIRE MODEL AT END OF TIME STEP   25, STRESS PERIOD   1
  ---------------------------------------------------------------------------------------------------

     CUMULATIVE MASS      M       RATES FOR THIS TIME STEP      M/T          PACKAGE NAME    
     ------------------                 ------------------------                     ----------------

           IN:                                      IN:
           ---                                      ---
     STORAGE-AQUEOUS =       4.6298E-03       STORAGE-AQUEOUS =       3.6848E-06     MST                              
                 WEL =  5475000000.0000                   WEL =     8640000.0000     SSM_WEL-1                        
                 CHD =           0.0000                   CHD =           0.0000     SSM_CHD-1                        

            TOTAL IN =  5475000000.0046              TOTAL IN =     8640000.0000

          OUT:                                     OUT:
          ----                                     ----
     STORAGE-AQUEOUS =  5475000000.0046       STORAGE-AQUEOUS =     8640000.0000     MST                              
                 WEL =           0.0000                   WEL =           0.0000     SSM_WEL-1                        
                 CHD =       7.5562E-18                   CHD =       1.5352E-26     SSM_CHD-1                        

           TOTAL OUT =  5475000000.0046             TOTAL OUT =     8640000.0000

            IN - OUT =       2.8610E-05              IN - OUT =      -1.8813E-07

 PERCENT DISCREPANCY =           0.00     PERCENT DISCREPANCY =          -0.00




         TIME SUMMARY AT END OF TIME STEP   25 IN STRESS PERIOD    1
                    SECONDS     MINUTES      HOURS       DAYS        YEARS
                    -----------------------------------------------------------
   TIME STEP LENGTH 2.19000E+06  36500.      608.33      25.347     6.93969E-02
 STRESS PERIOD TIME 5.47500E+07 9.12500E+05  15208.      633.68      1.7349    
         TOTAL TIME 5.47500E+07 9.12500E+05  15208.      633.68      1.7349    


end timestep


start timestep kper="1" kstp="26" mode="normal"

 UBDSV1 SAVING  STORAGE-AQUEOUS ON UNIT   1029 AT TIME STEP     26, STRESS PERIOD      1
 UBDSV1 SAVING     FLOW-JA-FACE ON UNIT   1029 AT TIME STEP     26, STRESS PERIOD      1
 UBDSV06 SAVING  SOURCE-SINK MIX IN MODEL GWT_P06-MF6      PACKAGE GWT_P06-MF6     CONNECTED TO MODEL GWT_P06-MF6      PACKAGE SSM              ON UNIT   1029 AT TIME STEP     26, STRESS PERIOD      1
1
  CONCENTRATION IN LAYER   1 AT END OF TIME STEP  26 IN STRESS PERIOD    1
  ---------------------------------------------------------------------------

                1               2               3               4               5               6               7               8               9              10
               11              12              13              14              15              16              17              18              19              20
               21              22              23              24              25              26              27              28              29              30
               31
 ................................................................................................................................................................................................................................................................................................................................................................................................................................................................................................................
   1      0.00000        1.127657E-47    8.942142E-45    3.532291E-42    8.907580E-40    1.561497E-37    1.949205E-35    1.693804E-33    9.180153E-32    1.630144E-30
        -1.648143E-28   -1.314706E-26   -3.447290E-25   -8.146855E-24   -1.412620E-22   -2.435121E-21   -1.412552E-22   -8.143783E-24   -3.441634E-25   -1.308727E-26
        -1.616201E-28    1.718147E-30    9.292990E-32    1.694162E-33    1.928637E-35    1.527905E-37    8.617515E-40    3.379193E-42    8.463924E-45    1.056994E-47
          0.00000    
   2     1.127657E-47    8.476665E-45    3.347753E-42    8.630266E-40    1.582788E-37    2.129000E-35    2.086035E-33    1.405412E-31    5.181473E-30   -6.616940E-29
        -2.066316E-26   -1.171621E-24   -3.123941E-23   -6.231044E-22   -9.074083E-21   -1.095859E-19   -9.073718E-21   -6.229473E-22   -3.120791E-23   -1.167838E-24
        -2.042163E-26   -5.769306E-29    5.345420E-30    1.420815E-31    2.084173E-33    2.103924E-35    1.546993E-37    8.342154E-40    3.200958E-42    8.021210E-45
         1.056924E-47
   3     8.942142E-45    3.347753E-42    8.522162E-40    1.588898E-37    2.233869E-35    2.366654E-33    1.822594E-31    9.021425E-30    1.279068E-28   -2.079662E-26
        -1.983660E-24   -8.892283E-23   -2.209945E-21   -3.803117E-20   -4.700967E-19   -4.522389E-18   -4.700811E-19   -3.802447E-20   -2.208445E-21   -8.871375E-23
        -1.967850E-24   -2.012200E-26    1.448295E-28    9.272935E-30    1.841554E-31    2.362888E-33    2.205820E-35    1.551896E-37    8.233570E-40    3.199950E-42
         8.459931E-45
   4     3.532291E-42    8.630266E-40    1.588898E-37    2.267675E-35    2.511690E-33    2.101876E-31    1.222076E-29    3.454315E-28   -1.534101E-26   -2.494736E-24
        -1.543168E-22   -5.657680E-21   -1.249911E-19   -1.834953E-18   -1.843746E-17   -1.602087E-16   -1.843703E-17   -1.834735E-18   -1.249331E-19   -5.648093E-21
        -1.534508E-22   -2.450308E-24   -1.396675E-26    3.722920E-28    1.255137E-29    2.123335E-31    2.506767E-33    2.238316E-35    1.551439E-37    8.336605E-40
         3.375964E-42
   5     8.907580E-40    1.582788E-37    2.233869E-35    2.511690E-33    2.199946E-31    1.403173E-29    5.129117E-28   -8.329155E-27   -2.732342E-24   -2.104495E-22
        -9.731555E-21   -2.948632E-19   -5.558145E-18   -6.741157E-17   -9.372268E-16   -4.580367E-15   -9.372082E-16   -6.740686E-17   -5.556473E-18   -2.945145E-19
        -9.693126E-21   -2.080949E-22   -2.643513E-24   -6.168336E-27    5.481557E-28    1.441242E-29    2.222495E-31    2.506598E-33    2.204910E-35    1.545628E-37
         8.605956E-40
   6     1.561497E-37    2.129000E-35    2.366654E-33    2.101876E-31    1.403173E-29    5.755316E-28   -3.650405E-27   -2.812541E-24   -2.513920E-22   -1.341100E-20
        -4.810757E-19   -1.214945E-17   -1.868935E-16   -3.036339E-15   -2.548531E-14   -8.832624E-14   -2.548502E-14   -3.036204E-15   -1.868634E-16   -1.214019E-17
        -4.797722E-19   -1.331202E-20   -2.469166E-22   -2.679066E-24   -9.299755E-28    6.146114E-28    1.441981E-29    2.123967E-31    2.362448E-33    2.102229E-35
         1.525671E-37
   7     1.949205E-35    2.086035E-33    1.822594E-31    1.222076E-29    5.129117E-28   -3.650405E-27   -2.828169E-24   -2.733520E-22   -1.599877E-20   -6.335101E-19
        -1.701905E-17   -3.792244E-16   -7.308975E-15   -8.301702E-14   -4.114589E-13   -1.274954E-12   -4.114557E-13   -8.301577E-14   -7.308651E-15   -3.790651E-16
        -1.698968E-17   -6.304436E-19   -1.582554E-20   -2.671420E-22   -2.672731E-24   -8.571106E-28    5.498139E-28    1.257137E-29    1.842744E-31    2.083648E-33
         1.926415E-35
   8     1.693804E-33    1.405412E-31    9.021425E-30    3.454315E-28   -8.329155E-27   -2.812541E-24   -2.733520E-22   -1.693957E-20   -7.198184E-19   -2.034669E-17
        -5.921313E-16   -1.342955E-14   -1.860964E-13   -1.500270E-12    1.764335E-12    1.316636E-10    1.764191E-12   -1.500260E-12   -1.860956E-13   -1.343052E-14
        -5.915882E-16   -2.028692E-17   -7.150616E-19   -1.672628E-20   -2.669299E-22   -2.670797E-24   -5.988294E-27    3.749307E-28    9.299716E-30    1.422398E-31
         1.693805E-33
   9     9.180153E-32    5.181473E-30    1.279068E-28   -1.534101E-26   -2.732342E-24   -2.513920E-22   -1.599877E-20   -7.198184E-19   -2.166071E-17   -7.346810E-16
        -1.884269E-14   -3.054573E-13   -3.149513E-12    2.997283E-11    1.407323E-09    2.376214E-08    1.407323E-09    2.997166E-11   -3.149327E-12   -3.054784E-13
        -1.884694E-14   -7.336778E-16   -2.158225E-17   -7.148530E-19   -1.581197E-20   -2.464423E-22   -2.632081E-24   -1.376741E-26    1.474588E-28    5.371558E-30
         9.310099E-32
  10     1.630144E-30   -6.616940E-29   -2.079662E-26   -2.494736E-24   -2.104495E-22   -1.341100E-20   -6.335101E-19   -2.034669E-17   -7.346810E-16   -2.100110E-14
        -3.896084E-13   -4.603727E-12    1.018485E-10    6.881873E-09    2.848990E-07    5.754882E-06    2.848990E-07    6.881883E-09    1.018431E-10   -4.602548E-12
        -3.896801E-13   -2.100799E-14   -7.336204E-16   -2.028079E-17   -6.300307E-19   -1.329611E-20   -2.076660E-22   -2.441413E-24   -1.997881E-26   -5.583473E-29
         1.737564E-30
  11    -1.648143E-28   -2.066316E-26   -1.983660E-24   -1.543168E-22   -9.731555E-21   -4.810757E-19   -1.701905E-17   -5.921313E-16   -1.884269E-14   -3.896084E-13
        -5.161287E-12    1.789911E-10    1.725184E-08    1.214647E-06    5.351185E-05    1.043169E-03    5.351185E-05    1.214647E-06    1.725189E-08    1.789752E-10
        -5.158976E-12   -3.896916E-13   -1.884775E-14   -5.914991E-16   -1.698384E-17   -4.794831E-19   -9.683842E-21   -1.532266E-22   -1.963535E-24   -2.035327E-26
        -1.606936E-28
  12    -1.314706E-26   -1.171621E-24   -8.892283E-23   -5.657680E-21   -2.948632E-19   -1.214945E-17   -3.792244E-16   -1.342955E-14   -3.054573E-13   -4.603727E-12
         1.789911E-10    2.323294E-08    2.398009E-06    1.696873E-04    6.966156E-03    0.123506        6.966156E-03    1.696873E-04    2.398009E-06    2.323302E-08
         1.789737E-10   -4.602259E-12   -3.054898E-13   -1.343098E-14   -3.790249E-16   -1.213768E-17   -2.944136E-19   -5.645158E-21   -8.864636E-23   -1.166565E-24
        -1.306634E-26
  13    -3.447290E-25   -3.123941E-23   -2.209945E-21   -1.249911E-19   -5.558145E-18   -1.868935E-16   -7.308975E-15   -1.860964E-13   -3.149513E-12    1.018485E-10
         1.725184E-08    2.398009E-06    2.414917E-04    1.525870E-02    0.501222         5.55369        0.501222        1.525870E-02    2.414917E-04    2.398009E-06
         1.725189E-08    1.018420E-10   -3.149239E-12   -1.860979E-13   -7.308670E-15   -1.868559E-16   -5.556011E-18   -1.249160E-19   -2.207974E-21   -3.119743E-23
        -3.439643E-25
  14    -8.146855E-24   -6.231044E-22   -3.803117E-20   -1.834953E-18   -6.741157E-17   -3.036339E-15   -8.301702E-14   -1.500270E-12    2.997283E-11    6.881873E-09
         1.214647E-06    1.696873E-04    1.525870E-02    0.705740         11.3706         46.8442         11.3706        0.705740        1.525870E-02    1.696873E-04
         1.214647E-06    6.881885E-09    2.997145E-11   -1.500257E-12   -8.301577E-14   -3.036184E-15   -6.740593E-17   -1.834688E-18   -3.802296E-20   -6.229097E-22
        -8.142990E-24
  15    -1.412620E-22   -9.074083E-21   -4.700967E-19   -1.843746E-17   -9.372268E-16   -2.548531E-14   -4.114589E-13    1.764335E-12    1.407323E-09    2.848990E-07
         5.351185E-05    6.966156E-03    0.501222         11.3706         56.8346         92.2118         56.8346         11.3706        0.501222        6.966156E-03
         5.351185E-05    2.848990E-07    1.407323E-09    1.764164E-12   -4.114552E-13   -2.548498E-14   -9.372056E-16   -1.843698E-17   -4.700793E-19   -9.073677E-21
        -1.412544E-22
  16    -2.435121E-21   -1.095859E-19   -4.522389E-18   -1.602087E-16   -4.580367E-15   -8.832624E-14   -1.274954E-12    1.316636E-10    2.376214E-08    5.754882E-06
         1.043169E-03    0.123506         5.55369         46.8442         92.2118         99.9795         92.2118         46.8442         5.55369        0.123506    
         1.043169E-03    5.754882E-06    2.376214E-08    1.316636E-10   -1.274954E-12   -8.832624E-14   -4.580367E-15   -1.602086E-16   -4.522389E-18   -1.095859E-19
        -2.435121E-21
  17    -1.412552E-22   -9.073718E-21   -4.700811E-19   -1.843703E-17   -9.372082E-16   -2.548502E-14   -4.114557E-13    1.764191E-12    1.407323E-09    2.848990E-07
         5.351185E-05    6.966156E-03    0.501222         11.3706         56.8346         92.2118         56.8346         11.3706        0.501222        6.966156E-03
         5.351185E-05    2.848990E-07    1.407323E-09    1.764335E-12   -4.114589E-13   -2.548531E-14   -9.372268E-16   -1.843746E-17   -4.700967E-19   -9.074083E-21
        -1.412620E-22
  18    -8.143783E-24   -6.229473E-22   -3.802447E-20   -1.834735E-18   -6.740686E-17   -3.036204E-15   -8.301577E-14   -1.500260E-12    2.997166E-11    6.881883E-09
         1.214647E-06    1.696873E-04    1.525870E-02    0.705740         11.3706         46.8442         11.3706        0.705740        1.525870E-02    1.696873E-04
         1.214647E-06    6.881873E-09    2.997283E-11   -1.500270E-12   -8.301702E-14   -3.036339E-15   -6.741157E-17   -1.834953E-18   -3.803117E-20   -6.231044E-22
        -8.146855E-24
  19    -3.441634E-25   -3.120791E-23   -2.208445E-21   -1.249331E-19   -5.556473E-18   -1.868634E-16   -7.308651E-15   -1.860956E-13   -3.149327E-12    1.018431E-10
         1.725189E-08    2.398009E-06    2.414917E-04    1.525870E-02    0.501222         5.55369        0.501222        1.525870E-02    2.414917E-04    2.398009E-06
         1.725184E-08    1.018485E-10   -3.149513E-12   -1.860964E-13   -7.308975E-15   -1.868935E-16   -5.558145E-18   -1.249911E-19   -2.209945E-21   -3.123941E-23
        -3.447290E-25
  20    -1.308727E-26   -1.167838E-24   -8.871375E-23   -5.648093E-21   -2.945145E-19   -1.214019E-17   -3.790651E-16   -1.343052E-14   -3.054784E-13   -4.602548E-12
         1.789752E-10    2.323302E-08    2.398009E-06    1.696873E-04    6.966156E-03    0.123506        6.966156E-03    1.696873E-04    2.398009E-06    2.323294E-08
         1.789911E-10   -4.603727E-12   -3.054573E-13   -1.342955E-14   -3.792244E-16   -1.214945E-17   -2.948632E-19   -5.657680E-21   -8.892283E-23   -1.171621E-24
        -1.314706E-26
  21    -1.616201E-28   -2.042163E-26   -1.967850E-24   -1.534508E-22   -9.693126E-21   -4.797722E-19   -1.698968E-17   -5.915882E-16   -1.884694E-14   -3.896801E-13
        -5.158976E-12    1.789737E-10    1.725189E-08    1.214647E-06    5.351185E-05    1.043169E-03    5.351185E-05    1.214647E-06    1.725184E-08    1.789911E-10
        -5.161287E-12   -3.896085E-13   -1.884269E-14   -5.921313E-16   -1.701905E-17   -4.810757E-19   -9.731555E-21   -1.543168E-22   -1.983660E-24   -2.066316E-26
        -1.648143E-28
  22     1.718147E-30   -5.769306E-29   -2.012200E-26   -2.450308E-24   -2.080949E-22   -1.331202E-20   -6.304436E-19   -2.028692E-17   -7.336778E-16   -2.100799E-14
        -3.896916E-13   -4.602259E-12    1.018420E-10    6.881885E-09    2.848990E-07    5.754882E-06    2.848990E-07    6.881873E-09    1.018485E-10   -4.603727E-12
        -3.896085E-13   -2.100110E-14   -7.346810E-16   -2.034669E-17   -6.335101E-19   -1.341100E-20   -2.104495E-22   -2.494736E-24   -2.079662E-26   -6.616941E-29
         1.630144E-30
  23     9.292990E-32    5.345420E-30    1.448295E-28   -1.396675E-26   -2.643513E-24   -2.469166E-22   -1.582554E-20   -7.150616E-19   -2.158225E-17   -7.336204E-16
        -1.884775E-14   -3.054898E-13   -3.149239E-12    2.997145E-11    1.407323E-09    2.376214E-08    1.407323E-09    2.997283E-11   -3.149513E-12   -3.054573E-13
        -1.884269E-14   -7.346810E-16   -2.166071E-17   -7.198184E-19   -1.599877E-20   -2.513920E-22   -2.732342E-24   -1.534101E-26    1.279068E-28    5.181473E-30
         9.180153E-32
  24     1.694162E-33    1.420815E-31    9.272935E-30    3.722920E-28   -6.168336E-27   -2.679066E-24   -2.671420E-22   -1.672628E-20   -7.148530E-19   -2.028079E-17
        -5.914991E-16   -1.343098E-14   -1.860979E-13   -1.500257E-12    1.764164E-12    1.316636E-10    1.764335E-12   -1.500270E-12   -1.860964E-13   -1.342955E-14
        -5.921313E-16   -2.034669E-17   -7.198184E-19   -1.693957E-20   -2.733520E-22   -2.812541E-24   -8.329155E-27    3.454315E-28    9.021425E-30    1.405412E-31
         1.693804E-33
  25     1.928637E-35    2.084173E-33    1.841554E-31    1.255137E-29    5.481557E-28   -9.299755E-28   -2.672731E-24   -2.669299E-22   -1.581197E-20   -6.300307E-19
        -1.698384E-17   -3.790249E-16   -7.308670E-15   -8.301577E-14   -4.114552E-13   -1.274954E-12   -4.114589E-13   -8.301702E-14   -7.308975E-15   -3.792244E-16
        -1.701905E-17   -6.335101E-19   -1.599877E-20   -2.733520E-22   -2.828169E-24   -3.650405E-27    5.129117E-28    1.222076E-29    1.822594E-31    2.086035E-33
         1.949205E-35
  26     1.527905E-37    2.103924E-35    2.362888E-33    2.123335E-31    1.441242E-29    6.146114E-28   -8.571106E-28   -2.670797E-24   -2.464423E-22   -1.329611E-20
        -4.794831E-19   -1.213768E-17   -1.868559E-16   -3.036184E-15   -2.548498E-14   -8.832624E-14   -2.548531E-14   -3.036339E-15   -1.868935E-16   -1.214945E-17
        -4.810757E-19   -1.341100E-20   -2.513920E-22   -2.812541E-24   -3.650405E-27    5.755316E-28    1.403173E-29    2.101876E-31    2.366654E-33    2.129000E-35
         1.561497E-37
  27     8.617515E-40    1.546993E-37    2.205820E-35    2.506767E-33    2.222495E-31    1.441981E-29    5.498139E-28   -5.988294E-27   -2.632081E-24   -2.076660E-22
        -9.683842E-21   -2.944136E-19   -5.556011E-18   -6.740593E-17   -9.372056E-16   -4.580367E-15   -9.372268E-16   -6.741157E-17   -5.558145E-18   -2.948632E-19
        -9.731555E-21   -2.104495E-22   -2.732342E-24   -8.329155E-27    5.129117E-28    1.403173E-29    2.199946E-31    2.511690E-33    2.233869E-35    1.582788E-37
         8.907580E-40
  28     3.379193E-42    8.342154E-40    1.551896E-37    2.238316E-35    2.506598E-33    2.123967E-31    1.257137E-29    3.749307E-28   -1.376741E-26   -2.441413E-24
        -1.532266E-22   -5.645158E-21   -1.249160E-19   -1.834688E-18   -1.843698E-17   -1.602086E-16   -1.843746E-17   -1.834953E-18   -1.249911E-19   -5.657680E-21
        -1.543168E-22   -2.494736E-24   -1.534101E-26    3.454315E-28    1.222076E-29    2.101876E-31    2.511690E-33    2.267675E-35    1.588898E-37    8.630266E-40
         3.532291E-42
  29     8.463924E-45    3.200958E-42    8.233570E-40    1.551439E-37    2.204910E-35    2.362448E-33    1.842744E-31    9.299716E-30    1.474588E-28   -1.997881E-26
        -1.963535E-24   -8.864636E-23   -2.207974E-21   -3.802296E-20   -4.700793E-19   -4.522389E-18   -4.700967E-19   -3.803117E-20   -2.209945E-21   -8.892283E-23
        -1.983660E-24   -2.079662E-26    1.279068E-28    9.021425E-30    1.822594E-31    2.366654E-33    2.233869E-35    1.588898E-37    8.522162E-40    3.347753E-42
         8.942142E-45
  30     1.056994E-47    8.021210E-45    3.199950E-42    8.336605E-40    1.545628E-37    2.102229E-35    2.083648E-33    1.422398E-31    5.371558E-30   -5.583473E-29
        -2.035327E-26   -1.166565E-24   -3.119743E-23   -6.229097E-22   -9.073677E-21   -1.095859E-19   -9.074083E-21   -6.231044E-22   -3.123941E-23   -1.171621E-24
        -2.066316E-26   -6.616941E-29    5.181473E-30    1.405412E-31    2.086035E-33    2.129000E-35    1.582788E-37    8.630266E-40    3.347753E-42    8.476665E-45
         1.127657E-47
  31      0.00000        1.056924E-47    8.459931E-45    3.375964E-42    8.605956E-40    1.525671E-37    1.926415E-35    1.693805E-33    9.310099E-32    1.737564E-30
        -1.606936E-28   -1.306634E-26   -3.439643E-25   -8.142990E-24   -1.412544E-22   -2.435121E-21   -1.412620E-22   -8.146855E-24   -3.447290E-25   -1.314706E-26
        -1.648143E-28    1.630144E-30    9.180153E-32    1.693804E-33    1.949205E-35    1.561497E-37    8.907580E-40    3.532291E-42    8.942142E-45    1.127657E-47
          0.00000    

 CONCENTRATION WILL BE SAVED ON UNIT 1030 AT END OF TIME STEP   26, STRESS PERIOD    1


  MASS BUDGET FOR ENTIRE MODEL AT END OF TIME STEP   26, STRESS PERIOD   1
  ---------------------------------------------------------------------------------------------------

     CUMULATIVE MASS      M       RATES FOR THIS TIME STEP      M/T          PACKAGE NAME    
     ------------------                 ------------------------                     ----------------

           IN:                                      IN:
           ---                                      ---
     STORAGE-AQUEOUS =       4.7127E-03       STORAGE-AQUEOUS =       3.2724E-06     MST                              
                 WEL =  5694000000.0000                   WEL =     8640000.0000     SSM_WEL-1                        
                 CHD =           0.0000                   CHD =           0.0000     SSM_CHD-1                        

            TOTAL IN =  5694000000.0047              TOTAL IN =     8640000.0000

          OUT:                                     OUT:
          ----                                     ----
     STORAGE-AQUEOUS =  5694000000.0047       STORAGE-AQUEOUS =     8640000.0000     MST                              
                 WEL =           0.0000                   WEL =           0.0000     SSM_WEL-1                        
                 CHD =       7.5562E-18                   CHD =       1.2846E-26     SSM_CHD-1                        

           TOTAL OUT =  5694000000.0047             TOTAL OUT =     8640000.0000

            IN - OUT =       2.3842E-05              IN - OUT =      -1.8254E-07

 PERCENT DISCREPANCY =           0.00     PERCENT DISCREPANCY =          -0.00




         TIME SUMMARY AT END OF TIME STEP   26 IN STRESS PERIOD    1
                    SECONDS     MINUTES      HOURS       DAYS        YEARS
                    -----------------------------------------------------------
   TIME STEP LENGTH 2.19000E+06  36500.      608.33      25.347     6.93969E-02
 STRESS PERIOD TIME 5.69400E+07 9.49000E+05  15817.      659.03      1.8043    
         TOTAL TIME 5.69400E+07 9.49000E+05  15817.      659.03      1.8043    


end timestep


start timestep kper="1" kstp="27" mode="normal"

 UBDSV1 SAVING  STORAGE-AQUEOUS ON UNIT   1029 AT TIME STEP     27, STRESS PERIOD      1
 UBDSV1 SAVING     FLOW-JA-FACE ON UNIT   1029 AT TIME STEP     27, STRESS PERIOD      1
 UBDSV06 SAVING  SOURCE-SINK MIX IN MODEL GWT_P06-MF6      PACKAGE GWT_P06-MF6     CONNECTED TO MODEL GWT_P06-MF6      PACKAGE SSM              ON UNIT   1029 AT TIME STEP     27, STRESS PERIOD      1
1
  CONCENTRATION IN LAYER   1 AT END OF TIME STEP  27 IN STRESS PERIOD    1
  ---------------------------------------------------------------------------

                1               2               3               4               5               6               7               8               9              10
               11              12              13              14              15              16              17              18              19              20
               21              22              23              24              25              26              27              28              29              30
               31
 ................................................................................................................................................................................................................................................................................................................................................................................................................................................................................................................
   1      0.00000        2.019208E-47    1.563212E-44    6.007390E-42    1.466630E-39    2.471400E-37    2.931092E-35    2.361660E-33    1.093545E-31    8.354171E-32
        -3.668624E-28   -2.363597E-26   -6.298930E-25   -1.367690E-23   -2.185838E-22   -3.284854E-21   -2.185741E-22   -1.367261E-23   -6.290856E-25   -2.354779E-26
        -3.618791E-28    2.328311E-31    1.116845E-31    2.374863E-33    2.915356E-35    2.432236E-37    1.428082E-39    5.787858E-42    1.490707E-44    1.907033E-47
          0.00000    
   2     2.019208E-47    1.481869E-44    5.694521E-42    1.421794E-39    2.508969E-37    3.214468E-35    2.944415E-33    1.767344E-31    4.428149E-30   -3.034819E-28
        -3.861638E-26   -1.924272E-24   -4.982515E-23   -9.339312E-22   -1.273913E-20   -1.427503E-19   -1.273865E-20   -9.337238E-22   -4.978246E-23   -1.918980E-24
        -3.826223E-26   -2.902876E-28    4.709942E-30    1.800703E-31    2.958373E-33    3.194254E-35    2.467028E-37    1.383469E-39    5.483986E-42    1.412812E-44
         1.906920E-47
   3     1.563212E-44    5.694521E-42    1.404250E-39    2.520459E-37    3.379907E-35    3.361617E-33    2.346297E-31    9.237051E-30   -1.154086E-28   -4.524006E-26
        -3.329201E-24   -1.355089E-22   -3.220303E-21   -5.241882E-20   -6.084507E-19   -5.632624E-18   -6.084316E-19   -5.241040E-20   -3.218359E-21   -1.352299E-22
        -3.307225E-24   -4.425750E-26   -8.905812E-29    9.673420E-30    2.388752E-31    3.375938E-33    3.356721E-35    2.476998E-37    1.365846E-39    5.482529E-42
         1.490098E-44
   4     6.007390E-42    1.421794E-39    2.520459E-37    3.433287E-35    3.577344E-33    2.734631E-31    1.328341E-29    1.125609E-28   -4.479255E-26   -4.436455E-24
        -2.373805E-22   -8.029874E-21   -1.691091E-19   -2.355363E-18   -2.239207E-17   -1.840928E-16   -2.239157E-17   -2.355100E-18   -1.690369E-19   -8.017630E-21
        -2.362369E-22   -4.375346E-24   -4.280065E-26    1.543908E-28    1.386026E-29    2.783644E-31    3.591833E-33    3.408809E-35    2.476446E-37    1.382721E-39
         5.783190E-42
   5     1.466630E-39    2.508969E-37    3.379907E-35    3.577344E-33    2.871111E-31    1.558384E-29    2.929972E-28   -4.122649E-26   -5.191355E-24   -3.310738E-22
        -1.377662E-20   -3.864098E-19   -7.040757E-18   -8.171878E-17   -1.144043E-15   -5.239070E-15   -1.144021E-15   -8.171330E-17   -7.038744E-18   -3.859867E-19
        -1.372820E-20   -3.279873E-22   -5.069847E-24   -3.810290E-26    3.478871E-28    1.624988E-29    2.923001E-31    3.591930E-33    3.355874E-35    2.465382E-37
         1.426525E-39
   6     2.471400E-37    3.214468E-35    3.361617E-33    2.734631E-31    1.558384E-29    3.611442E-28   -3.832047E-26   -5.629223E-24   -4.033840E-22   -1.906194E-20
        -6.212980E-19   -1.383589E-17   -2.228910E-16   -3.582948E-15   -3.022911E-14   -9.937315E-14   -3.022879E-14   -3.582790E-15   -2.228558E-16   -1.382576E-17
        -6.197410E-19   -1.893818E-20   -3.975463E-22   -5.447146E-24   -3.439254E-26    4.220074E-28    1.626295E-29    2.785224E-31    3.376266E-33    3.192699E-35
         2.429550E-37
   7     2.931092E-35    2.944415E-33    2.346297E-31    1.328341E-29    2.929972E-28   -3.832047E-26   -5.773450E-24   -4.433906E-22   -2.282576E-20   -8.155111E-19
        -1.953716E-17   -4.521621E-16   -8.597964E-15   -9.717815E-14   -5.020152E-13   -1.312004E-12   -5.020117E-13   -9.717657E-14   -8.597608E-15   -4.519801E-16
        -1.950474E-17   -8.118669E-19   -2.260999E-20   -4.353115E-22   -5.561630E-24   -3.428830E-26    3.504588E-28    1.389546E-29    2.391627E-31    2.959029E-33
         2.913382E-35
   8     2.361660E-33    1.767344E-31    9.237051E-30    1.125609E-28   -4.122649E-26   -5.629223E-24   -4.433906E-22   -2.420138E-20   -9.272542E-19   -2.377277E-17
        -7.057721E-16   -1.579772E-14   -2.173558E-13   -1.775864E-12    4.413011E-12    1.720847E-10    4.412844E-12   -1.775858E-12   -2.173527E-13   -1.579892E-14
        -7.051727E-16   -2.370603E-17   -9.216104E-19   -2.393608E-20   -4.350380E-22   -5.435983E-24   -3.784511E-26    1.584799E-28    9.720179E-30    1.804333E-31
         2.375950E-33
   9     1.093545E-31    4.428149E-30   -1.154086E-28   -4.479255E-26   -5.191355E-24   -4.033840E-22   -2.282576E-20   -9.272542E-19   -2.545341E-17   -8.762685E-16
        -2.225711E-14   -3.549609E-13   -3.539793E-12    4.550969E-11    1.904682E-09    3.249956E-08    1.904683E-09    4.550840E-11   -3.539610E-12   -3.549720E-13
        -2.226271E-14   -8.751738E-16   -2.536543E-17   -9.213635E-19   -2.259319E-20   -3.969329E-22   -5.054378E-24   -4.251449E-26   -8.498679E-29    4.755020E-30
         1.120520E-31
  10     8.354171E-32   -3.034819E-28   -4.524006E-26   -4.436455E-24   -3.310738E-22   -1.906194E-20   -8.155111E-19   -2.377277E-17   -8.762685E-16   -2.485694E-14
        -4.505740E-13   -4.978774E-12    1.475814E-10    9.499299E-09    3.906861E-07    7.647011E-06    3.906861E-07    9.499312E-09    1.475753E-10   -4.977539E-12
        -4.506248E-13   -2.486607E-14   -8.751107E-16   -2.369918E-17   -8.113776E-19   -1.891841E-20   -3.274301E-22   -4.363238E-24   -4.405081E-26   -2.874121E-28
         2.657949E-31
  11    -3.668624E-28   -3.861638E-26   -3.329201E-24   -2.373805E-22   -1.377662E-20   -6.212980E-19   -1.953716E-17   -7.057721E-16   -2.225711E-14   -4.505740E-13
        -5.498594E-12    2.567801E-10    2.398915E-08    1.665168E-06    7.115618E-05    1.342447E-03    7.115618E-05    1.665168E-06    2.398921E-08    2.567623E-10
        -5.496141E-12   -4.506353E-13   -2.226372E-14   -7.050740E-16   -1.949829E-17   -6.193970E-19   -1.371659E-20   -2.359437E-22   -3.301282E-24   -3.816287E-26
        -3.604456E-28
  12    -2.363597E-26   -1.924272E-24   -1.355089E-22   -8.029874E-21   -3.864098E-19   -1.383589E-17   -4.521621E-16   -1.579772E-14   -3.549609E-13   -4.978774E-12
         2.567801E-10    3.236304E-08    3.286241E-06    2.254448E-04    8.953973E-03    0.152136        8.953973E-03    2.254448E-04    3.286241E-06    3.236314E-08
         2.567606E-10   -4.977225E-12   -3.549816E-13   -1.579949E-14   -4.519344E-16   -1.382301E-17   -3.858650E-19   -8.013918E-21   -1.351410E-22   -1.917223E-24
        -2.351740E-26
  13    -6.298930E-25   -4.982515E-23   -3.220303E-21   -1.691091E-19   -7.040757E-18   -2.228910E-16   -8.597964E-15   -2.173558E-13   -3.539793E-12    1.475814E-10
         2.398915E-08    3.286241E-06    3.205837E-04    1.955354E-02    0.611512         6.33025        0.611512        1.955354E-02    3.205837E-04    3.286241E-06
         2.398921E-08    1.475741E-10   -3.539516E-12   -2.173544E-13   -8.597633E-15   -2.228471E-16   -7.038194E-18   -1.690158E-19   -3.217756E-21   -4.976850E-23
        -6.288072E-25
  14    -1.367690E-23   -9.339312E-22   -5.241882E-20   -2.355363E-18   -8.171878E-17   -3.582948E-15   -9.717815E-14   -1.775864E-12    4.550969E-11    9.499299E-09
         1.665168E-06    2.254448E-04    1.955354E-02    0.857629         12.7936         49.2573         12.7936        0.857629        1.955354E-02    2.254448E-04
         1.665168E-06    9.499314E-09    4.550815E-11   -1.775854E-12   -9.717652E-14   -3.582767E-15   -8.171223E-17   -2.355045E-18   -5.240853E-20   -9.336750E-22
        -1.367154E-23
  15    -2.185838E-22   -1.273913E-20   -6.084507E-19   -2.239207E-17   -1.144043E-15   -3.022911E-14   -5.020152E-13    4.413011E-12    1.904682E-09    3.906861E-07
         7.115618E-05    8.953973E-03    0.611512         12.7936         59.3658         92.8854         59.3658         12.7936        0.611512        8.953973E-03
         7.115618E-05    3.906861E-07    1.904683E-09    4.412813E-12   -5.020112E-13   -3.022874E-14   -1.144018E-15   -2.239151E-17   -6.084294E-19   -1.273859E-20
        -2.185731E-22
  16    -3.284854E-21   -1.427503E-19   -5.632624E-18   -1.840928E-16   -5.239070E-15   -9.937315E-14   -1.312004E-12    1.720847E-10    3.249956E-08    7.647011E-06
         1.342447E-03    0.152136         6.33025         49.2573         92.8854         99.9852         92.8854         49.2573         6.33025        0.152136    
         1.342447E-03    7.647011E-06    3.249956E-08    1.720847E-10   -1.312004E-12   -9.937315E-14   -5.239069E-15   -1.840928E-16   -5.632624E-18   -1.427502E-19
        -3.284854E-21
  17    -2.185741E-22   -1.273865E-20   -6.084316E-19   -2.239157E-17   -1.144021E-15   -3.022879E-14   -5.020117E-13    4.412844E-12    1.904683E-09    3.906861E-07
         7.115618E-05    8.953973E-03    0.611512         12.7936         59.3658         92.8854         59.3658         12.7936        0.611512        8.953973E-03
         7.115618E-05    3.906861E-07    1.904682E-09    4.413011E-12   -5.020152E-13   -3.022911E-14   -1.144043E-15   -2.239207E-17   -6.084507E-19   -1.273913E-20
        -2.185838E-22
  18    -1.367261E-23   -9.337238E-22   -5.241040E-20   -2.355100E-18   -8.171330E-17   -3.582790E-15   -9.717657E-14   -1.775858E-12    4.550840E-11    9.499312E-09
         1.665168E-06    2.254448E-04    1.955354E-02    0.857629         12.7936         49.2573         12.7936        0.857629        1.955354E-02    2.254448E-04
         1.665168E-06    9.499299E-09    4.550969E-11   -1.775864E-12   -9.717815E-14   -3.582947E-15   -8.171878E-17   -2.355363E-18   -5.241882E-20   -9.339312E-22
        -1.367690E-23
  19    -6.290856E-25   -4.978246E-23   -3.218359E-21   -1.690369E-19   -7.038744E-18   -2.228558E-16   -8.597608E-15   -2.173527E-13   -3.539610E-12    1.475753E-10
         2.398921E-08    3.286241E-06    3.205837E-04    1.955354E-02    0.611512         6.33025        0.611512        1.955354E-02    3.205837E-04    3.286241E-06
         2.398915E-08    1.475814E-10   -3.539793E-12   -2.173558E-13   -8.597964E-15   -2.228910E-16   -7.040757E-18   -1.691091E-19   -3.220303E-21   -4.982515E-23
        -6.298930E-25
  20    -2.354779E-26   -1.918980E-24   -1.352299E-22   -8.017630E-21   -3.859867E-19   -1.382576E-17   -4.519801E-16   -1.579892E-14   -3.549720E-13   -4.977539E-12
         2.567623E-10    3.236314E-08    3.286241E-06    2.254448E-04    8.953973E-03    0.152136        8.953973E-03    2.254448E-04    3.286241E-06    3.236304E-08
         2.567801E-10   -4.978774E-12   -3.549609E-13   -1.579772E-14   -4.521621E-16   -1.383589E-17   -3.864098E-19   -8.029874E-21   -1.355089E-22   -1.924272E-24
        -2.363597E-26
  21    -3.618791E-28   -3.826223E-26   -3.307225E-24   -2.362369E-22   -1.372820E-20   -6.197410E-19   -1.950474E-17   -7.051727E-16   -2.226271E-14   -4.506248E-13
        -5.496141E-12    2.567606E-10    2.398921E-08    1.665168E-06    7.115618E-05    1.342447E-03    7.115618E-05    1.665168E-06    2.398915E-08    2.567801E-10
        -5.498594E-12   -4.505740E-13   -2.225711E-14   -7.057721E-16   -1.953716E-17   -6.212980E-19   -1.377662E-20   -2.373805E-22   -3.329201E-24   -3.861638E-26
        -3.668624E-28
  22     2.328311E-31   -2.902876E-28   -4.425750E-26   -4.375346E-24   -3.279873E-22   -1.893818E-20   -8.118669E-19   -2.370603E-17   -8.751738E-16   -2.486607E-14
        -4.506353E-13   -4.977225E-12    1.475741E-10    9.499314E-09    3.906861E-07    7.647011E-06    3.906861E-07    9.499299E-09    1.475814E-10   -4.978774E-12
        -4.505740E-13   -2.485694E-14   -8.762685E-16   -2.377277E-17   -8.155111E-19   -1.906194E-20   -3.310738E-22   -4.436455E-24   -4.524006E-26   -3.034819E-28
         8.354163E-32
  23     1.116845E-31    4.709942E-30   -8.905812E-29   -4.280065E-26   -5.069847E-24   -3.975463E-22   -2.260999E-20   -9.216104E-19   -2.536543E-17   -8.751107E-16
        -2.226372E-14   -3.549816E-13   -3.539516E-12    4.550815E-11    1.904683E-09    3.249956E-08    1.904682E-09    4.550969E-11   -3.539793E-12   -3.549609E-13
        -2.225711E-14   -8.762685E-16   -2.545341E-17   -9.272542E-19   -2.282576E-20   -4.033840E-22   -5.191355E-24   -4.479255E-26   -1.154086E-28    4.428149E-30
         1.093545E-31
  24     2.374863E-33    1.800703E-31    9.673420E-30    1.543908E-28   -3.810290E-26   -5.447146E-24   -4.353115E-22   -2.393608E-20   -9.213635E-19   -2.369918E-17
        -7.050740E-16   -1.579949E-14   -2.173544E-13   -1.775854E-12    4.412813E-12    1.720847E-10    4.413011E-12   -1.775864E-12   -2.173558E-13   -1.579772E-14
        -7.057721E-16   -2.377277E-17   -9.272542E-19   -2.420138E-20   -4.433906E-22   -5.629223E-24   -4.122649E-26    1.125609E-28    9.237051E-30    1.767344E-31
         2.361660E-33
  25     2.915356E-35    2.958374E-33    2.388752E-31    1.386026E-29    3.478871E-28   -3.439254E-26   -5.561630E-24   -4.350380E-22   -2.259319E-20   -8.113776E-19
        -1.949829E-17   -4.519344E-16   -8.597633E-15   -9.717652E-14   -5.020112E-13   -1.312004E-12   -5.020152E-13   -9.717815E-14   -8.597964E-15   -4.521621E-16
        -1.953716E-17   -8.155111E-19   -2.282576E-20   -4.433906E-22   -5.773450E-24   -3.832047E-26    2.929972E-28    1.328342E-29    2.346297E-31    2.944415E-33
         2.931092E-35
  26     2.432236E-37    3.194254E-35    3.375938E-33    2.783644E-31    1.624988E-29    4.220074E-28   -3.428830E-26   -5.435983E-24   -3.969329E-22   -1.891841E-20
        -6.193970E-19   -1.382301E-17   -2.228471E-16   -3.582767E-15   -3.022874E-14   -9.937315E-14   -3.022911E-14   -3.582947E-15   -2.228910E-16   -1.383589E-17
        -6.212980E-19   -1.906194E-20   -4.033840E-22   -5.629223E-24   -3.832047E-26    3.611442E-28    1.558384E-29    2.734631E-31    3.361617E-33    3.214468E-35
         2.471400E-37
  27     1.428082E-39    2.467028E-37    3.356721E-35    3.591833E-33    2.923001E-31    1.626295E-29    3.504588E-28   -3.784511E-26   -5.054378E-24   -3.274301E-22
        -1.371659E-20   -3.858650E-19   -7.038194E-18   -8.171223E-17   -1.144018E-15   -5.239069E-15   -1.144043E-15   -8.171878E-17   -7.040757E-18   -3.864098E-19
        -1.377662E-20   -3.310738E-22   -5.191355E-24   -4.122649E-26    2.929972E-28    1.558384E-29    2.871111E-31    3.577344E-33    3.379907E-35    2.508969E-37
         1.466630E-39
  28     5.787858E-42    1.383469E-39    2.476998E-37    3.408809E-35    3.591930E-33    2.785224E-31    1.389546E-29    1.584799E-28   -4.251449E-26   -4.363238E-24
        -2.359437E-22   -8.013918E-21   -1.690158E-19   -2.355045E-18   -2.239151E-17   -1.840928E-16   -2.239207E-17   -2.355363E-18   -1.691091E-19   -8.029874E-21
        -2.373805E-22   -4.436455E-24   -4.479255E-26    1.125609E-28    1.328342E-29    2.734631E-31    3.577344E-33    3.433287E-35    2.520459E-37    1.421794E-39
         6.007390E-42
  29     1.490707E-44    5.483986E-42    1.365846E-39    2.476446E-37    3.355874E-35    3.376266E-33    2.391627E-31    9.720179E-30   -8.498679E-29   -4.405081E-26
        -3.301282E-24   -1.351410E-22   -3.217756E-21   -5.240853E-20   -6.084294E-19   -5.632624E-18   -6.084507E-19   -5.241882E-20   -3.220303E-21   -1.355089E-22
        -3.329201E-24   -4.524006E-26   -1.154086E-28    9.237051E-30    2.346297E-31    3.361617E-33    3.379907E-35    2.520459E-37    1.404250E-39    5.694521E-42
         1.563212E-44
  30     1.907033E-47    1.412812E-44    5.482529E-42    1.382721E-39    2.465382E-37    3.192699E-35    2.959029E-33    1.804333E-31    4.755020E-30   -2.874121E-28
        -3.816287E-26   -1.917223E-24   -4.976850E-23   -9.336750E-22   -1.273859E-20   -1.427502E-19   -1.273913E-20   -9.339312E-22   -4.982515E-23   -1.924272E-24
        -3.861638E-26   -3.034819E-28    4.428149E-30    1.767344E-31    2.944415E-33    3.214468E-35    2.508969E-37    1.421794E-39    5.694521E-42    1.481869E-44
         2.019208E-47
  31      0.00000        1.906920E-47    1.490098E-44    5.783190E-42    1.426525E-39    2.429550E-37    2.913382E-35    2.375950E-33    1.120520E-31    2.657949E-31
        -3.604456E-28   -2.351740E-26   -6.288072E-25   -1.367154E-23   -2.185731E-22   -3.284854E-21   -2.185838E-22   -1.367690E-23   -6.298930E-25   -2.363597E-26
        -3.668624E-28    8.354163E-32    1.093545E-31    2.361660E-33    2.931092E-35    2.471400E-37    1.466630E-39    6.007390E-42    1.563212E-44    2.019208E-47
          0.00000    

 CONCENTRATION WILL BE SAVED ON UNIT 1030 AT END OF TIME STEP   27, STRESS PERIOD    1


  MASS BUDGET FOR ENTIRE MODEL AT END OF TIME STEP   27, STRESS PERIOD   1
  ---------------------------------------------------------------------------------------------------

     CUMULATIVE MASS      M       RATES FOR THIS TIME STEP      M/T          PACKAGE NAME    
     ------------------                 ------------------------                     ----------------

           IN:                                      IN:
           ---                                      ---
     STORAGE-AQUEOUS =       4.7806E-03       STORAGE-AQUEOUS =       2.6758E-06     MST                              
                 WEL =  5913000000.0000                   WEL =     8640000.0000     SSM_WEL-1                        
                 CHD =           0.0000                   CHD =           0.0000     SSM_CHD-1                        

            TOTAL IN =  5913000000.0048              TOTAL IN =     8640000.0000

          OUT:                                     OUT:
          ----                                     ----
     STORAGE-AQUEOUS =  5913000000.0048       STORAGE-AQUEOUS =     8640000.0000     MST                              
                 WEL =           0.0000                   WEL =           0.0000     SSM_WEL-1                        
                 CHD =       7.5562E-18                   CHD =       1.9520E-27     SSM_CHD-1                        

           TOTAL OUT =  5913000000.0048             TOTAL OUT =     8640000.0000

            IN - OUT =       1.8120E-05              IN - OUT =      -2.2911E-07

 PERCENT DISCREPANCY =           0.00     PERCENT DISCREPANCY =          -0.00




         TIME SUMMARY AT END OF TIME STEP   27 IN STRESS PERIOD    1
                    SECONDS     MINUTES      HOURS       DAYS        YEARS
                    -----------------------------------------------------------
   TIME STEP LENGTH 2.19000E+06  36500.      608.33      25.347     6.93969E-02
 STRESS PERIOD TIME 5.91300E+07 9.85500E+05  16425.      684.37      1.8737    
         TOTAL TIME 5.91300E+07 9.85500E+05  16425.      684.37      1.8737    


end timestep


start timestep kper="1" kstp="28" mode="normal"

 UBDSV1 SAVING  STORAGE-AQUEOUS ON UNIT   1029 AT TIME STEP     28, STRESS PERIOD      1
 UBDSV1 SAVING     FLOW-JA-FACE ON UNIT   1029 AT TIME STEP     28, STRESS PERIOD      1
 UBDSV06 SAVING  SOURCE-SINK MIX IN MODEL GWT_P06-MF6      PACKAGE GWT_P06-MF6     CONNECTED TO MODEL GWT_P06-MF6      PACKAGE SSM              ON UNIT   1029 AT TIME STEP     28, STRESS PERIOD      1
1
  CONCENTRATION IN LAYER   1 AT END OF TIME STEP  28 IN STRESS PERIOD    1
  ---------------------------------------------------------------------------

                1               2               3               4               5               6               7               8               9              10
               11              12              13              14              15              16              17              18              19              20
               21              22              23              24              25              26              27              28              29              30
               31
 ................................................................................................................................................................................................................................................................................................................................................................................................................................................................................................................
   1      0.00000        3.544551E-47    2.674528E-44    9.978577E-42    2.352207E-39    3.795440E-37    4.247235E-35    3.117326E-33    1.124400E-31   -3.622426E-30
        -7.179321E-28   -4.020979E-26   -1.065806E-24   -2.168359E-23   -3.240813E-22   -4.376285E-21   -3.240678E-22   -2.167770E-23   -1.064677E-24   -4.008261E-26
        -7.103864E-28   -3.379807E-30    1.167249E-31    3.154574E-33    4.246392E-35    3.755301E-37    2.303809E-39    9.675574E-42    2.567954E-44    3.371360E-47
          0.00000    
   2     3.544551E-47    2.535403E-44    9.460540E-42    2.281718E-39    3.860018E-37    4.681852E-35    3.955753E-33    2.017026E-31    1.272372E-30   -7.453182E-28
        -6.721070E-26   -3.034202E-24   -7.611607E-23   -1.351973E-21   -1.739924E-20   -1.833923E-19   -1.739861E-20   -1.351703E-21   -7.605914E-23   -3.026931E-24
        -6.670325E-26   -7.254176E-28    1.731450E-30    2.079710E-31    3.999718E-33    4.677711E-35    3.816590E-37    2.233528E-39    9.169874E-42    2.433893E-44
         3.371184E-47
   3     2.674528E-44    9.460540E-42    2.254022E-39    3.880894E-37    4.935821E-35    4.556356E-33    2.787765E-31    6.885727E-30   -6.145194E-28   -8.534320E-26
        -5.315335E-24   -1.996965E-22   -4.558610E-21   -7.059274E-20   -7.749915E-19   -6.913204E-18   -7.749683E-19   -7.058226E-20   -4.556123E-21   -1.993297E-22
        -5.285365E-24   -8.394501E-26   -5.748297E-28    7.599928E-30    2.868694E-31    4.605262E-33    4.929455E-35    3.835670E-37    2.205703E-39    9.167842E-42
         2.567052E-44
   4     9.978577E-42    2.281718E-39    3.880894E-37    5.017851E-35    4.867066E-33    3.306021E-31    1.168220E-29   -4.178590E-28   -9.469874E-26   -7.333805E-24
        -3.510392E-22   -1.105735E-20   -2.241988E-19   -2.980079E-18   -2.699376E-17   -2.128610E-16   -2.699318E-17   -2.979764E-18   -2.241099E-19   -1.104195E-20
        -3.495518E-22   -7.251193E-24   -9.187734E-26   -3.549080E-28    1.262891E-29    3.400218E-31    4.918822E-33    5.010550E-35    3.835063E-37    2.232569E-39
         9.669062E-42
   5     2.352207E-39    3.860018E-37    4.935821E-35    4.867066E-33    3.488356E-31    1.442717E-29   -2.521659E-28   -9.842443E-26   -8.900648E-24   -4.962115E-22
        -1.886921E-20   -4.922157E-19   -8.801798E-18   -9.828323E-17   -1.382291E-15   -5.982641E-15   -1.382265E-15   -9.827688E-17   -8.799400E-18   -4.917112E-19
        -1.880903E-20   -4.922221E-22   -8.737180E-24   -9.401152E-26   -1.695972E-28    1.552171E-29    3.588385E-31    4.919444E-33    4.928960E-35    3.814786E-37
         2.301814E-39
   6     3.795440E-37    4.681852E-35    4.556356E-33    3.306021E-31    1.442717E-29   -1.882350E-28   -9.945098E-26   -9.908919E-24   -6.119120E-22   -2.616233E-20
        -7.824751E-19   -1.585918E-17   -2.650801E-16   -4.212551E-15   -3.485051E-14   -1.124576E-13   -3.485014E-14   -4.212370E-15   -2.650386E-16   -1.584820E-17
        -7.806369E-19   -2.600929E-20   -6.043959E-22   -9.664583E-24   -9.390832E-26   -9.669941E-29    1.554326E-29    3.403356E-31    4.607100E-33    4.676860E-35
         3.752377E-37
   7     4.247235E-35    3.955753E-33    2.787765E-31    1.168220E-29   -2.521659E-28   -9.945098E-26   -1.025969E-23   -6.770190E-22   -3.141629E-20   -1.027540E-18
        -2.258680E-17   -5.410751E-16   -1.010327E-14   -1.133214E-13   -6.261548E-13   -1.277224E-12   -6.261513E-13   -1.133194E-13   -1.010288E-14   -5.408920E-16
        -2.255112E-17   -1.023247E-18   -3.115011E-20   -6.666382E-22   -9.975706E-24   -9.376253E-26   -1.657506E-28    1.268683E-29    2.874331E-31    4.002669E-33
         4.245467E-35
   8     3.117326E-33    2.017026E-31    6.885727E-30   -4.178590E-28   -9.842443E-26   -9.908919E-24   -6.770190E-22   -3.334696E-20   -1.171015E-18   -2.794137E-17
        -8.477141E-16   -1.900162E-14   -2.513769E-13   -2.036200E-12    8.086427E-12    2.242052E-10    8.086236E-12   -2.036197E-12   -2.513713E-13   -1.900638E-14
        -8.470842E-16   -2.786674E-17   -1.164366E-18   -3.301994E-20   -6.662892E-22   -9.649742E-24   -9.365067E-26   -3.487920E-28    7.676513E-30    2.086682E-31
         3.158418E-33
   9     1.124400E-31    1.272372E-30   -6.145194E-28   -9.469874E-26   -8.900648E-24   -6.119120E-22   -3.141629E-20   -1.171015E-18   -3.007471E-17   -1.054966E-15
        -2.717693E-14   -4.057654E-13   -3.835729E-12    6.613762E-11    2.571165E-09    4.405607E-08    2.571166E-09    6.613620E-11   -3.835554E-12   -4.057600E-13
        -2.718557E-14   -1.053793E-15   -2.997579E-17   -1.164076E-18   -3.112947E-20   -6.036118E-22   -8.716568E-24   -9.147576E-26   -5.687377E-28    1.804820E-30
         1.174114E-31
  10    -3.622426E-30   -7.453182E-28   -8.534320E-26   -7.333805E-24   -4.962115E-22   -2.616233E-20   -1.027540E-18   -2.794137E-17   -1.054966E-15   -3.050398E-14
        -5.139465E-13   -5.155844E-12    2.090167E-10    1.303942E-08    5.306187E-07    1.007158E-05    5.306187E-07    1.303944E-08    2.090102E-10   -5.154580E-12
        -5.139865E-13   -3.051495E-14   -1.053727E-15   -2.785909E-17   -1.022672E-18   -2.598498E-20   -4.915073E-22   -7.234982E-24   -8.365348E-26   -7.211096E-28
        -3.326362E-30
  11    -7.179321E-28   -6.721070E-26   -5.315335E-24   -3.510392E-22   -1.886921E-20   -7.824751E-19   -2.258680E-17   -8.477141E-16   -2.717693E-14   -5.139465E-13
        -5.579310E-12    3.619734E-10    3.312489E-08    2.260993E-06    9.379269E-05    1.713520E-03    9.379269E-05    2.260993E-06    3.312495E-08    3.619540E-10
        -5.576737E-12   -5.139956E-13   -2.718739E-14   -8.469840E-16   -2.254404E-17   -7.802321E-19   -1.879469E-20   -3.491737E-22   -5.277332E-24   -6.656214E-26
        -7.082339E-28
  12    -4.020979E-26   -3.034202E-24   -1.996965E-22   -1.105735E-20   -4.922157E-19   -1.585918E-17   -5.410751E-16   -1.900162E-14   -4.057654E-13   -5.155844E-12
         3.619734E-10    4.474946E-08    4.460546E-06    2.969126E-04    1.141429E-02    0.185885        1.141429E-02    2.969126E-04    4.460546E-06    4.474958E-08
         3.619521E-10   -5.154246E-12   -4.057657E-13   -1.900805E-14   -5.408477E-16   -1.584524E-17   -4.915669E-19   -1.103732E-20   -1.992142E-22   -3.024547E-24
        -4.003942E-26
  13    -1.065806E-24   -7.611607E-23   -4.558610E-21   -2.241988E-19   -8.801798E-18   -2.650801E-16   -1.010327E-14   -2.513769E-13   -3.835729E-12    2.090167E-10
         3.312489E-08    4.460546E-06    4.218647E-04    2.485011E-02    0.739792         7.16296        0.739792        2.485011E-02    4.218647E-04    4.460546E-06
         3.312496E-08    2.090087E-10   -3.835455E-12   -2.513723E-13   -1.010292E-14   -2.650284E-16   -8.798750E-18   -2.240842E-19   -4.555361E-21   -7.604079E-23
        -1.064294E-24
  14    -2.168359E-23   -1.351973E-21   -7.059274E-20   -2.980079E-18   -9.828323E-17   -4.212551E-15   -1.133214E-13   -2.036200E-12    6.613762E-11    1.303942E-08
         2.260993E-06    2.969126E-04    2.485011E-02     1.03352         14.2920         51.5918         14.2920         1.03352        2.485011E-02    2.969126E-04
         2.260993E-06    1.303944E-08    6.613592E-11   -2.036194E-12   -1.133192E-13   -4.212344E-15   -9.827565E-17   -2.979699E-18   -7.057997E-20   -1.351641E-21
        -2.167626E-23
  15    -3.240813E-22   -1.739924E-20   -7.749915E-19   -2.699376E-17   -1.382291E-15   -3.485051E-14   -6.261548E-13    8.086427E-12    2.571165E-09    5.306187E-07
         9.379269E-05    1.141429E-02    0.739792         14.2920         61.7749         93.4849         61.7749         14.2920        0.739792        1.141429E-02
         9.379269E-05    5.306187E-07    2.571166E-09    8.086202E-12   -6.261508E-13   -3.485008E-14   -1.382262E-15   -2.699311E-17   -7.749656E-19   -1.739854E-20
        -3.240663E-22
  16    -4.376285E-21   -1.833923E-19   -6.913204E-18   -2.128610E-16   -5.982641E-15   -1.124576E-13   -1.277224E-12    2.242052E-10    4.405607E-08    1.007158E-05
         1.713520E-03    0.185885         7.16296         51.5918         93.4849         99.9893         93.4849         51.5918         7.16296        0.185885    
         1.713520E-03    1.007158E-05    4.405607E-08    2.242052E-10   -1.277223E-12   -1.124576E-13   -5.982641E-15   -2.128610E-16   -6.913204E-18   -1.833923E-19
        -4.376285E-21
  17    -3.240678E-22   -1.739861E-20   -7.749683E-19   -2.699318E-17   -1.382265E-15   -3.485014E-14   -6.261513E-13    8.086236E-12    2.571166E-09    5.306187E-07
         9.379269E-05    1.141429E-02    0.739792         14.2920         61.7749         93.4849         61.7749         14.2920        0.739792        1.141429E-02
         9.379269E-05    5.306187E-07    2.571165E-09    8.086427E-12   -6.261548E-13   -3.485051E-14   -1.382291E-15   -2.699376E-17   -7.749914E-19   -1.739924E-20
        -3.240813E-22
  18    -2.167770E-23   -1.351703E-21   -7.058226E-20   -2.979764E-18   -9.827688E-17   -4.212370E-15   -1.133194E-13   -2.036197E-12    6.613620E-11    1.303944E-08
         2.260993E-06    2.969126E-04    2.485011E-02     1.03352         14.2920         51.5918         14.2920         1.03352        2.485011E-02    2.969126E-04
         2.260993E-06    1.303942E-08    6.613762E-11   -2.036200E-12   -1.133214E-13   -4.212551E-15   -9.828323E-17   -2.980079E-18   -7.059274E-20   -1.351973E-21
        -2.168359E-23
  19    -1.064677E-24   -7.605914E-23   -4.556123E-21   -2.241099E-19   -8.799400E-18   -2.650386E-16   -1.010288E-14   -2.513713E-13   -3.835554E-12    2.090102E-10
         3.312495E-08    4.460546E-06    4.218647E-04    2.485011E-02    0.739792         7.16296        0.739792        2.485011E-02    4.218647E-04    4.460546E-06
         3.312489E-08    2.090167E-10   -3.835729E-12   -2.513769E-13   -1.010327E-14   -2.650801E-16   -8.801798E-18   -2.241988E-19   -4.558610E-21   -7.611607E-23
        -1.065806E-24
  20    -4.008261E-26   -3.026931E-24   -1.993297E-22   -1.104195E-20   -4.917112E-19   -1.584820E-17   -5.408920E-16   -1.900638E-14   -4.057600E-13   -5.154580E-12
         3.619540E-10    4.474958E-08    4.460546E-06    2.969126E-04    1.141429E-02    0.185885        1.141429E-02    2.969126E-04    4.460546E-06    4.474946E-08
         3.619734E-10   -5.155844E-12   -4.057654E-13   -1.900162E-14   -5.410751E-16   -1.585918E-17   -4.922157E-19   -1.105735E-20   -1.996965E-22   -3.034202E-24
        -4.020979E-26
  21    -7.103864E-28   -6.670325E-26   -5.285365E-24   -3.495518E-22   -1.880903E-20   -7.806369E-19   -2.255112E-17   -8.470842E-16   -2.718557E-14   -5.139865E-13
        -5.576737E-12    3.619521E-10    3.312496E-08    2.260993E-06    9.379269E-05    1.713520E-03    9.379269E-05    2.260993E-06    3.312489E-08    3.619734E-10
        -5.579310E-12   -5.139465E-13   -2.717693E-14   -8.477141E-16   -2.258680E-17   -7.824751E-19   -1.886921E-20   -3.510392E-22   -5.315335E-24   -6.721070E-26
        -7.179321E-28
  22    -3.379807E-30   -7.254176E-28   -8.394501E-26   -7.251193E-24   -4.922221E-22   -2.600929E-20   -1.023247E-18   -2.786674E-17   -1.053793E-15   -3.051495E-14
        -5.139956E-13   -5.154246E-12    2.090087E-10    1.303944E-08    5.306187E-07    1.007158E-05    5.306187E-07    1.303942E-08    2.090167E-10   -5.155844E-12
        -5.139465E-13   -3.050398E-14   -1.054966E-15   -2.794137E-17   -1.027540E-18   -2.616233E-20   -4.962115E-22   -7.333805E-24   -8.534320E-26   -7.453182E-28
        -3.622426E-30
  23     1.167249E-31    1.731450E-30   -5.748297E-28   -9.187734E-26   -8.737180E-24   -6.043959E-22   -3.115011E-20   -1.164366E-18   -2.997579E-17   -1.053727E-15
        -2.718739E-14   -4.057657E-13   -3.835455E-12    6.613592E-11    2.571166E-09    4.405607E-08    2.571165E-09    6.613762E-11   -3.835729E-12   -4.057654E-13
        -2.717693E-14   -1.054966E-15   -3.007471E-17   -1.171015E-18   -3.141629E-20   -6.119120E-22   -8.900648E-24   -9.469874E-26   -6.145194E-28    1.272372E-30
         1.124400E-31
  24     3.154574E-33    2.079710E-31    7.599928E-30   -3.549080E-28   -9.401152E-26   -9.664583E-24   -6.666382E-22   -3.301994E-20   -1.164076E-18   -2.785909E-17
        -8.469840E-16   -1.900805E-14   -2.513723E-13   -2.036194E-12    8.086202E-12    2.242052E-10    8.086427E-12   -2.036200E-12   -2.513769E-13   -1.900162E-14
        -8.477141E-16   -2.794137E-17   -1.171015E-18   -3.334696E-20   -6.770190E-22   -9.908918E-24   -9.842442E-26   -4.178590E-28    6.885727E-30    2.017026E-31
         3.117326E-33
  25     4.246392E-35    3.999718E-33    2.868694E-31    1.262891E-29   -1.695972E-28   -9.390832E-26   -9.975706E-24   -6.662892E-22   -3.112947E-20   -1.022672E-18
        -2.254404E-17   -5.408477E-16   -1.010292E-14   -1.133192E-13   -6.261508E-13   -1.277223E-12   -6.261548E-13   -1.133214E-13   -1.010327E-14   -5.410751E-16
        -2.258680E-17   -1.027540E-18   -3.141629E-20   -6.770190E-22   -1.025969E-23   -9.945098E-26   -2.521659E-28    1.168220E-29    2.787765E-31    3.955753E-33
         4.247235E-35
  26     3.755301E-37    4.677711E-35    4.605262E-33    3.400218E-31    1.552171E-29   -9.669941E-29   -9.376253E-26   -9.649742E-24   -6.036118E-22   -2.598498E-20
        -7.802321E-19   -1.584524E-17   -2.650284E-16   -4.212344E-15   -3.485008E-14   -1.124576E-13   -3.485051E-14   -4.212551E-15   -2.650801E-16   -1.585918E-17
        -7.824751E-19   -2.616233E-20   -6.119120E-22   -9.908918E-24   -9.945098E-26   -1.882350E-28    1.442717E-29    3.306021E-31    4.556356E-33    4.681852E-35
         3.795440E-37
  27     2.303809E-39    3.816590E-37    4.929455E-35    4.918822E-33    3.588385E-31    1.554326E-29   -1.657506E-28   -9.365067E-26   -8.716568E-24   -4.915073E-22
        -1.879469E-20   -4.915669E-19   -8.798750E-18   -9.827565E-17   -1.382262E-15   -5.982641E-15   -1.382291E-15   -9.828323E-17   -8.801798E-18   -4.922157E-19
        -1.886921E-20   -4.962115E-22   -8.900648E-24   -9.842442E-26   -2.521659E-28    1.442717E-29    3.488356E-31    4.867066E-33    4.935821E-35    3.860018E-37
         2.352207E-39
  28     9.675574E-42    2.233528E-39    3.835670E-37    5.010550E-35    4.919444E-33    3.403356E-31    1.268683E-29   -3.487920E-28   -9.147576E-26   -7.234982E-24
        -3.491737E-22   -1.103732E-20   -2.240842E-19   -2.979699E-18   -2.699311E-17   -2.128610E-16   -2.699376E-17   -2.980079E-18   -2.241988E-19   -1.105735E-20
        -3.510392E-22   -7.333805E-24   -9.469874E-26   -4.178590E-28    1.168220E-29    3.306021E-31    4.867066E-33    5.017852E-35    3.880894E-37    2.281718E-39
         9.978577E-42
  29     2.567954E-44    9.169874E-42    2.205703E-39    3.835063E-37    4.928960E-35    4.607100E-33    2.874331E-31    7.676513E-30   -5.687377E-28   -8.365348E-26
        -5.277332E-24   -1.992142E-22   -4.555361E-21   -7.057997E-20   -7.749656E-19   -6.913204E-18   -7.749914E-19   -7.059274E-20   -4.558610E-21   -1.996965E-22
        -5.315335E-24   -8.534320E-26   -6.145194E-28    6.885727E-30    2.787765E-31    4.556356E-33    4.935821E-35    3.880894E-37    2.254022E-39    9.460540E-42
         2.674528E-44
  30     3.371360E-47    2.433893E-44    9.167842E-42    2.232569E-39    3.814786E-37    4.676860E-35    4.002669E-33    2.086682E-31    1.804820E-30   -7.211096E-28
        -6.656214E-26   -3.024547E-24   -7.604079E-23   -1.351641E-21   -1.739854E-20   -1.833923E-19   -1.739924E-20   -1.351973E-21   -7.611607E-23   -3.034202E-24
        -6.721070E-26   -7.453182E-28    1.272372E-30    2.017026E-31    3.955753E-33    4.681852E-35    3.860018E-37    2.281718E-39    9.460540E-42    2.535403E-44
         3.544551E-47
  31      0.00000        3.371184E-47    2.567052E-44    9.669062E-42    2.301814E-39    3.752377E-37    4.245467E-35    3.158418E-33    1.174114E-31   -3.326362E-30
        -7.082339E-28   -4.003942E-26   -1.064294E-24   -2.167626E-23   -3.240663E-22   -4.376285E-21   -3.240813E-22   -2.168359E-23   -1.065806E-24   -4.020979E-26
        -7.179321E-28   -3.622426E-30    1.124400E-31    3.117326E-33    4.247235E-35    3.795440E-37    2.352207E-39    9.978577E-42    2.674528E-44    3.544551E-47
          0.00000    

 CONCENTRATION WILL BE SAVED ON UNIT 1030 AT END OF TIME STEP   28, STRESS PERIOD    1


  MASS BUDGET FOR ENTIRE MODEL AT END OF TIME STEP   28, STRESS PERIOD   1
  ---------------------------------------------------------------------------------------------------

     CUMULATIVE MASS      M       RATES FOR THIS TIME STEP      M/T          PACKAGE NAME    
     ------------------                 ------------------------                     ----------------

           IN:                                      IN:
           ---                                      ---
     STORAGE-AQUEOUS =       4.8299E-03       STORAGE-AQUEOUS =       1.9461E-06     MST                              
                 WEL =  6132000000.0000                   WEL =     8640000.0000     SSM_WEL-1                        
                 CHD =           0.0000                   CHD =           0.0000     SSM_CHD-1                        

            TOTAL IN =  6132000000.0048              TOTAL IN =     8640000.0000

          OUT:                                     OUT:
          ----                                     ----
     STORAGE-AQUEOUS =  6132000000.0048       STORAGE-AQUEOUS =     8640000.0000     MST                              
                 WEL =           0.0000                   WEL =           0.0000     SSM_WEL-1                        
                 CHD =       7.5562E-18                   CHD =       7.7142E-28     SSM_CHD-1                        

           TOTAL OUT =  6132000000.0048             TOTAL OUT =     8640000.0000

            IN - OUT =       1.2398E-05              IN - OUT =      -2.4028E-07

 PERCENT DISCREPANCY =           0.00     PERCENT DISCREPANCY =          -0.00




         TIME SUMMARY AT END OF TIME STEP   28 IN STRESS PERIOD    1
                    SECONDS     MINUTES      HOURS       DAYS        YEARS
                    -----------------------------------------------------------
   TIME STEP LENGTH 2.19000E+06  36500.      608.33      25.347     6.93969E-02
 STRESS PERIOD TIME 6.13200E+07 1.02200E+06  17033.      709.72      1.9431    
         TOTAL TIME 6.13200E+07 1.02200E+06  17033.      709.72      1.9431    


end timestep


start timestep kper="1" kstp="29" mode="normal"

 UBDSV1 SAVING  STORAGE-AQUEOUS ON UNIT   1029 AT TIME STEP     29, STRESS PERIOD      1
 UBDSV1 SAVING     FLOW-JA-FACE ON UNIT   1029 AT TIME STEP     29, STRESS PERIOD      1
 UBDSV06 SAVING  SOURCE-SINK MIX IN MODEL GWT_P06-MF6      PACKAGE GWT_P06-MF6     CONNECTED TO MODEL GWT_P06-MF6      PACKAGE SSM              ON UNIT   1029 AT TIME STEP     29, STRESS PERIOD      1
1
  CONCENTRATION IN LAYER   1 AT END OF TIME STEP  29 IN STRESS PERIOD    1
  ---------------------------------------------------------------------------

                1               2               3               4               5               6               7               8               9              10
               11              12              13              14              15              16              17              18              19              20
               21              22              23              24              25              26              27              28              29              30
               31
 ................................................................................................................................................................................................................................................................................................................................................................................................................................................................................................................
   1      0.00000        6.097649E-47    4.476687E-44    1.618058E-41    3.671919E-39    5.646821E-37    5.905202E-35    3.832977E-33    8.207506E-32   -1.102953E-29
        -1.297113E-27   -6.550914E-26   -1.709973E-24   -3.295479E-23   -4.647972E-22   -5.760929E-21   -4.647788E-22   -3.294685E-23   -1.708421E-24   -6.532932E-26
        -1.285970E-27   -1.064978E-29    8.941742E-32    3.911800E-33    5.936733E-35    5.615846E-37    3.615754E-39    1.578057E-41    4.325133E-44    5.837693E-47
          0.00000    
   2     6.097649E-47    4.243897E-44    1.534341E-41    3.564375E-39    5.755329E-37    6.554275E-35    4.999856E-33    1.946671E-31   -6.191121E-30   -1.505158E-27
        -1.110004E-25   -4.624291E-24   -1.124267E-22   -1.903042E-21   -2.322465E-20   -2.327126E-19   -2.322384E-20   -1.902696E-21   -1.123519E-22   -4.614468E-24
        -1.102878E-25   -1.475912E-27   -5.472339E-30    2.055299E-31    5.096049E-33    6.585757E-35    5.720793E-37    3.508305E-39    1.495953E-41    4.099537E-44
         5.837428E-47
   3     4.476687E-44    1.534341E-41    3.521915E-39    5.792216E-37    6.933916E-35    5.836206E-33    2.925309E-31   -2.735533E-31   -1.518553E-27   -1.479214E-25
        -8.154657E-24   -2.859437E-22   -6.300708E-21   -9.317914E-20   -9.703100E-19   -8.402081E-18   -9.702822E-19   -9.316624E-20   -6.297571E-21   -2.854694E-22
        -8.114479E-24   -1.459710E-25   -1.460354E-27    8.470726E-31    3.066586E-31    5.945558E-33    6.965264E-35    5.755743E-37    3.465634E-39    1.495681E-41
         4.323838E-44
   4     1.618058E-41    3.564375E-39    5.792216E-37    7.056682E-35    6.269101E-33    3.585571E-31    4.922115E-30   -1.426179E-27   -1.741434E-25   -1.150241E-23
        -5.025176E-22   -1.484669E-20   -2.921205E-19   -3.709799E-18   -3.170405E-17   -2.479405E-16   -3.170339E-17   -3.709427E-18   -2.920126E-19   -1.482763E-20
        -5.006110E-22   -1.139247E-23   -1.702246E-25   -1.333996E-27    6.409459E-30    3.750691E-31    6.386121E-33    7.088066E-35    5.755180E-37    3.507151E-39
         1.577184E-41
   5     3.671919E-39    5.755329E-37    6.933916E-35    6.269101E-33    3.818203E-31    7.929251E-30   -1.324513E-27   -1.908809E-25   -1.427519E-23   -7.162763E-22
        -2.516667E-20   -6.146484E-19   -1.086647E-17   -1.150810E-16   -1.564332E-15   -6.827444E-15   -1.564304E-15   -1.150738E-16   -1.086368E-17   -6.140560E-19
        -2.509286E-20   -7.111876E-22   -1.405854E-23   -1.847665E-25   -1.203689E-27    9.649883E-30    3.993805E-31    6.387676E-33    6.965632E-35    5.719130E-37
         3.613358E-39
   6     5.646821E-37    6.554275E-35    5.836206E-33    3.585571E-31    7.929251E-30   -1.282275E-27   -1.990685E-25   -1.613977E-23   -8.903307E-22   -3.494446E-20
        -9.682769E-19   -1.821352E-17   -3.115971E-16   -4.856550E-15   -4.036178E-14   -1.281455E-13   -4.036135E-14   -4.856351E-15   -3.115492E-16   -1.820148E-17
        -9.661291E-19   -3.475726E-20   -8.807727E-22   -1.581667E-23   -1.913975E-25   -1.148369E-27    9.683739E-30    3.756270E-31    5.950069E-33    6.586602E-35
         5.613193E-37
   7     5.905202E-35    4.999856E-33    2.925309E-31    4.922115E-30   -1.324513E-27   -1.990685E-25   -1.680208E-23   -9.893846E-22   -4.207077E-20   -1.275103E-18
        -2.617466E-17   -6.454791E-16   -1.184492E-14   -1.313788E-13   -7.595420E-13   -1.151037E-12   -7.595385E-13   -1.313763E-13   -1.184452E-14   -6.452783E-16
        -2.613509E-17   -1.270077E-18   -4.174560E-20   -9.762051E-22   -1.642688E-23   -1.911974E-25   -1.198095E-27    6.500352E-30    3.076549E-31    5.103039E-33
         5.938261E-35
   8     3.832977E-33    1.946671E-31   -2.735533E-31   -1.426179E-27   -1.908809E-25   -1.613977E-23   -9.893846E-22   -4.470409E-20   -1.457884E-18   -3.288082E-17
        -1.017313E-15   -2.293530E-14   -2.870037E-13   -2.263953E-12    1.294343E-11    2.915123E-10    1.294321E-11   -2.263955E-12   -2.869956E-13   -2.294015E-14
        -1.016637E-15   -3.279696E-17   -1.450086E-18   -4.430482E-20   -9.757647E-22   -1.579721E-23   -1.842708E-25   -1.325100E-27    9.669828E-31    2.067494E-31
         3.920451E-33
   9     8.207506E-32   -6.191121E-30   -1.518553E-27   -1.741434E-25   -1.427519E-23   -8.903307E-22   -4.207077E-20   -1.457884E-18   -3.556042E-17   -1.268919E-15
        -3.296798E-14   -4.642313E-13   -4.004238E-12    9.343658E-11    3.460217E-09    5.920906E-08    3.460218E-09    9.343506E-11   -4.004081E-12   -4.642211E-13
        -3.297757E-14   -1.267668E-15   -3.544871E-17   -1.449746E-18   -4.172049E-20   -8.797820E-22   -1.403146E-23   -1.696717E-25   -1.451484E-27   -5.357829E-30
         9.060105E-32
  10    -1.102953E-29   -1.505158E-27   -1.479214E-25   -1.150241E-23   -7.162763E-22   -3.494446E-20   -1.275103E-18   -3.288082E-17   -1.268919E-15   -3.698350E-14
        -5.908797E-13   -5.049255E-12    2.913026E-10    1.779370E-08    7.141634E-07    1.315501E-05    7.141634E-07    1.779372E-08    2.912956E-10   -5.047979E-12
        -5.909110E-13   -3.699627E-14   -1.267599E-15   -3.278836E-17   -1.269405E-18   -3.472765E-20   -7.102822E-22   -1.137108E-23   -1.455678E-25   -1.469626E-27
        -1.056646E-29
  11    -1.297113E-27   -1.110004E-25   -8.154657E-24   -5.025176E-22   -2.516667E-20   -9.682769E-19   -2.617466E-17   -1.017313E-15   -3.296798E-14   -5.908797E-13
        -5.296154E-12    5.036593E-10    4.541703E-08    3.042454E-06    1.226164E-04    2.170394E-03    1.226164E-04    3.042454E-06    4.541710E-08    5.036386E-10
        -5.293512E-12   -5.909198E-13   -3.297964E-14   -1.016532E-15   -2.612723E-17   -9.656575E-19   -2.507538E-20   -5.001303E-22   -8.103803E-24   -1.100914E-25
        -1.282818E-27
  12    -6.550914E-26   -4.624291E-24   -2.859437E-22   -1.484669E-20   -6.146484E-19   -1.821352E-17   -6.454791E-16   -2.293530E-14   -4.642313E-13   -5.049255E-12
         5.036593E-10    6.142093E-08    6.000232E-06    3.878303E-04    1.443751E-02    0.225379        1.443751E-02    3.878303E-04    6.000232E-06    6.142106E-08
         5.036365E-10   -5.047626E-12   -4.642261E-13   -2.294195E-14   -6.452309E-16   -1.819824E-17   -6.138875E-19   -1.482195E-20   -2.853214E-22   -4.611285E-24
        -6.526903E-26
  13    -1.709973E-24   -1.124267E-22   -6.300708E-21   -2.921205E-19   -1.086647E-17   -3.115971E-16   -1.184492E-14   -2.870037E-13   -4.004238E-12    2.913026E-10
         4.541703E-08    6.000232E-06    5.505847E-04    3.133461E-02    0.887842         8.05040        0.887842        3.133461E-02    5.505847E-04    6.000232E-06
         4.541711E-08    2.912940E-10   -4.003978E-12   -2.869958E-13   -1.184459E-14   -3.115377E-16   -1.086293E-17   -2.919818E-19   -6.296622E-21   -1.123281E-22
        -1.707904E-24
  14    -3.295479E-23   -1.903042E-21   -9.317914E-20   -3.709799E-18   -1.150810E-16   -4.856550E-15   -1.313788E-13   -2.263953E-12    9.343658E-11    1.779370E-08
         3.042454E-06    3.878303E-04    3.133461E-02     1.23565         15.8601         53.8446         15.8601         1.23565        3.133461E-02    3.878303E-04
         3.042454E-06    1.779372E-08    9.343476E-11   -2.263952E-12   -1.313761E-13   -4.856322E-15   -1.150724E-16   -3.709351E-18   -9.316345E-20   -1.902617E-21
        -3.294494E-23
  15    -4.647972E-22   -2.322465E-20   -9.703100E-19   -3.170405E-17   -1.564332E-15   -4.036178E-14   -7.595420E-13    1.294343E-11    3.460217E-09    7.141634E-07
         1.226164E-04    1.443751E-02    0.887842         15.8601         64.0614         94.0199         64.0614         15.8601        0.887842        1.443751E-02
         1.226164E-04    7.141634E-07    3.460218E-09    1.294317E-11   -7.595380E-13   -4.036129E-14   -1.564300E-15   -3.170331E-17   -9.702790E-19   -2.322375E-20
        -4.647768E-22
  16    -5.760929E-21   -2.327126E-19   -8.402081E-18   -2.479405E-16   -6.827444E-15   -1.281455E-13   -1.151037E-12    2.915123E-10    5.920906E-08    1.315501E-05
         2.170394E-03    0.225379         8.05040         53.8446         94.0199         99.9923         94.0199         53.8446         8.05040        0.225379    
         2.170394E-03    1.315501E-05    5.920906E-08    2.915123E-10   -1.151037E-12   -1.281455E-13   -6.827444E-15   -2.479405E-16   -8.402081E-18   -2.327126E-19
        -5.760929E-21
  17    -4.647788E-22   -2.322384E-20   -9.702822E-19   -3.170339E-17   -1.564304E-15   -4.036135E-14   -7.595385E-13    1.294321E-11    3.460218E-09    7.141634E-07
         1.226164E-04    1.443751E-02    0.887842         15.8601         64.0614         94.0199         64.0614         15.8601        0.887842        1.443751E-02
         1.226164E-04    7.141634E-07    3.460217E-09    1.294343E-11   -7.595420E-13   -4.036178E-14   -1.564332E-15   -3.170405E-17   -9.703100E-19   -2.322465E-20
        -4.647972E-22
  18    -3.294685E-23   -1.902696E-21   -9.316624E-20   -3.709427E-18   -1.150738E-16   -4.856351E-15   -1.313763E-13   -2.263955E-12    9.343506E-11    1.779372E-08
         3.042454E-06    3.878303E-04    3.133461E-02     1.23565         15.8601         53.8446         15.8601         1.23565        3.133461E-02    3.878303E-04
         3.042454E-06    1.779370E-08    9.343658E-11   -2.263953E-12   -1.313788E-13   -4.856550E-15   -1.150810E-16   -3.709799E-18   -9.317914E-20   -1.903042E-21
        -3.295479E-23
  19    -1.708421E-24   -1.123519E-22   -6.297571E-21   -2.920126E-19   -1.086368E-17   -3.115492E-16   -1.184452E-14   -2.869956E-13   -4.004081E-12    2.912956E-10
         4.541710E-08    6.000232E-06    5.505847E-04    3.133461E-02    0.887842         8.05040        0.887842        3.133461E-02    5.505847E-04    6.000232E-06
         4.541703E-08    2.913026E-10   -4.004238E-12   -2.870036E-13   -1.184492E-14   -3.115971E-16   -1.086647E-17   -2.921205E-19   -6.300708E-21   -1.124267E-22
        -1.709973E-24
  20    -6.532932E-26   -4.614468E-24   -2.854694E-22   -1.482763E-20   -6.140560E-19   -1.820148E-17   -6.452783E-16   -2.294015E-14   -4.642211E-13   -5.047979E-12
         5.036386E-10    6.142106E-08    6.000232E-06    3.878303E-04    1.443751E-02    0.225379        1.443751E-02    3.878303E-04    6.000232E-06    6.142093E-08
         5.036593E-10   -5.049255E-12   -4.642313E-13   -2.293530E-14   -6.454791E-16   -1.821352E-17   -6.146483E-19   -1.484669E-20   -2.859437E-22   -4.624291E-24
        -6.550914E-26
  21    -1.285970E-27   -1.102878E-25   -8.114479E-24   -5.006110E-22   -2.509286E-20   -9.661291E-19   -2.613509E-17   -1.016637E-15   -3.297757E-14   -5.909110E-13
        -5.293512E-12    5.036365E-10    4.541711E-08    3.042454E-06    1.226164E-04    2.170394E-03    1.226164E-04    3.042454E-06    4.541703E-08    5.036593E-10
        -5.296154E-12   -5.908797E-13   -3.296798E-14   -1.017313E-15   -2.617466E-17   -9.682769E-19   -2.516667E-20   -5.025176E-22   -8.154657E-24   -1.110004E-25
        -1.297113E-27
  22    -1.064978E-29   -1.475912E-27   -1.459710E-25   -1.139247E-23   -7.111876E-22   -3.475726E-20   -1.270077E-18   -3.279696E-17   -1.267668E-15   -3.699627E-14
        -5.909198E-13   -5.047626E-12    2.912940E-10    1.779372E-08    7.141634E-07    1.315501E-05    7.141634E-07    1.779370E-08    2.913026E-10   -5.049255E-12
        -5.908797E-13   -3.698350E-14   -1.268919E-15   -3.288082E-17   -1.275103E-18   -3.494446E-20   -7.162763E-22   -1.150241E-23   -1.479214E-25   -1.505158E-27
        -1.102953E-29
  23     8.941742E-32   -5.472339E-30   -1.460354E-27   -1.702246E-25   -1.405854E-23   -8.807727E-22   -4.174560E-20   -1.450086E-18   -3.544871E-17   -1.267599E-15
        -3.297964E-14   -4.642261E-13   -4.003978E-12    9.343476E-11    3.460218E-09    5.920906E-08    3.460217E-09    9.343658E-11   -4.004238E-12   -4.642313E-13
        -3.296798E-14   -1.268919E-15   -3.556042E-17   -1.457884E-18   -4.207077E-20   -8.903307E-22   -1.427519E-23   -1.741434E-25   -1.518553E-27   -6.191121E-30
         8.207506E-32
  24     3.911800E-33    2.055299E-31    8.470726E-31   -1.333996E-27   -1.847665E-25   -1.581667E-23   -9.762051E-22   -4.430482E-20   -1.449746E-18   -3.278836E-17
        -1.016532E-15   -2.294195E-14   -2.869958E-13   -2.263952E-12    1.294317E-11    2.915123E-10    1.294343E-11   -2.263953E-12   -2.870036E-13   -2.293530E-14
        -1.017313E-15   -3.288082E-17   -1.457884E-18   -4.470409E-20   -9.893846E-22   -1.613977E-23   -1.908809E-25   -1.426179E-27   -2.735532E-31    1.946671E-31
         3.832977E-33
  25     5.936733E-35    5.096049E-33    3.066586E-31    6.409459E-30   -1.203689E-27   -1.913975E-25   -1.642688E-23   -9.757647E-22   -4.172049E-20   -1.269405E-18
        -2.612723E-17   -6.452309E-16   -1.184459E-14   -1.313761E-13   -7.595380E-13   -1.151037E-12   -7.595420E-13   -1.313788E-13   -1.184492E-14   -6.454791E-16
        -2.617466E-17   -1.275103E-18   -4.207077E-20   -9.893846E-22   -1.680208E-23   -1.990685E-25   -1.324513E-27    4.922115E-30    2.925309E-31    4.999856E-33
         5.905203E-35
  26     5.615846E-37    6.585757E-35    5.945558E-33    3.750691E-31    9.649883E-30   -1.148369E-27   -1.911974E-25   -1.579721E-23   -8.797820E-22   -3.472765E-20
        -9.656575E-19   -1.819824E-17   -3.115377E-16   -4.856322E-15   -4.036129E-14   -1.281455E-13   -4.036178E-14   -4.856550E-15   -3.115971E-16   -1.821352E-17
        -9.682769E-19   -3.494446E-20   -8.903307E-22   -1.613977E-23   -1.990685E-25   -1.282275E-27    7.929252E-30    3.585571E-31    5.836206E-33    6.554275E-35
         5.646821E-37
  27     3.615754E-39    5.720793E-37    6.965264E-35    6.386121E-33    3.993805E-31    9.683739E-30   -1.198095E-27   -1.842708E-25   -1.403146E-23   -7.102822E-22
        -2.507538E-20   -6.138875E-19   -1.086293E-17   -1.150724E-16   -1.564300E-15   -6.827444E-15   -1.564332E-15   -1.150810E-16   -1.086647E-17   -6.146483E-19
        -2.516667E-20   -7.162763E-22   -1.427519E-23   -1.908809E-25   -1.324513E-27    7.929252E-30    3.818203E-31    6.269101E-33    6.933916E-35    5.755329E-37
         3.671919E-39
  28     1.578057E-41    3.508305E-39    5.755743E-37    7.088066E-35    6.387676E-33    3.756270E-31    6.500352E-30   -1.325100E-27   -1.696717E-25   -1.137108E-23
        -5.001303E-22   -1.482195E-20   -2.919818E-19   -3.709351E-18   -3.170331E-17   -2.479405E-16   -3.170405E-17   -3.709799E-18   -2.921205E-19   -1.484669E-20
        -5.025176E-22   -1.150241E-23   -1.741434E-25   -1.426179E-27    4.922115E-30    3.585571E-31    6.269101E-33    7.056682E-35    5.792216E-37    3.564375E-39
         1.618058E-41
  29     4.325133E-44    1.495953E-41    3.465634E-39    5.755180E-37    6.965632E-35    5.950069E-33    3.076549E-31    9.669828E-31   -1.451484E-27   -1.455678E-25
        -8.103803E-24   -2.853214E-22   -6.296622E-21   -9.316345E-20   -9.702790E-19   -8.402081E-18   -9.703100E-19   -9.317914E-20   -6.300708E-21   -2.859437E-22
        -8.154657E-24   -1.479214E-25   -1.518553E-27   -2.735532E-31    2.925309E-31    5.836206E-33    6.933916E-35    5.792216E-37    3.521915E-39    1.534341E-41
         4.476687E-44
  30     5.837693E-47    4.099537E-44    1.495681E-41    3.507151E-39    5.719130E-37    6.586602E-35    5.103039E-33    2.067494E-31   -5.357829E-30   -1.469626E-27
        -1.100914E-25   -4.611285E-24   -1.123281E-22   -1.902617E-21   -2.322375E-20   -2.327126E-19   -2.322465E-20   -1.903042E-21   -1.124267E-22   -4.624291E-24
        -1.110004E-25   -1.505158E-27   -6.191121E-30    1.946671E-31    4.999856E-33    6.554275E-35    5.755329E-37    3.564375E-39    1.534341E-41    4.243897E-44
         6.097649E-47
  31      0.00000        5.837428E-47    4.323838E-44    1.577184E-41    3.613358E-39    5.613193E-37    5.938261E-35    3.920451E-33    9.060105E-32   -1.056646E-29
        -1.282818E-27   -6.526903E-26   -1.707904E-24   -3.294494E-23   -4.647768E-22   -5.760929E-21   -4.647972E-22   -3.295479E-23   -1.709973E-24   -6.550914E-26
        -1.297113E-27   -1.102953E-29    8.207506E-32    3.832977E-33    5.905203E-35    5.646821E-37    3.671919E-39    1.618058E-41    4.476687E-44    6.097649E-47
          0.00000    

 CONCENTRATION WILL BE SAVED ON UNIT 1030 AT END OF TIME STEP   29, STRESS PERIOD    1


  MASS BUDGET FOR ENTIRE MODEL AT END OF TIME STEP   29, STRESS PERIOD   1
  ---------------------------------------------------------------------------------------------------

     CUMULATIVE MASS      M       RATES FOR THIS TIME STEP      M/T          PACKAGE NAME    
     ------------------                 ------------------------                     ----------------

           IN:                                      IN:
           ---                                      ---
     STORAGE-AQUEOUS =       4.8638E-03       STORAGE-AQUEOUS =       1.3397E-06     MST                              
                 WEL =  6351000000.0000                   WEL =     8640000.0000     SSM_WEL-1                        
                 CHD =           0.0000                   CHD =           0.0000     SSM_CHD-1                        

            TOTAL IN =  6351000000.0049              TOTAL IN =     8640000.0000

          OUT:                                     OUT:
          ----                                     ----
     STORAGE-AQUEOUS =  6351000000.0049       STORAGE-AQUEOUS =     8640000.0000     MST                              
                 WEL =           0.0000                   WEL =           0.0000     SSM_WEL-1                        
                 CHD =       7.5562E-18                   CHD =       5.8737E-28     SSM_CHD-1                        

           TOTAL OUT =  6351000000.0049             TOTAL OUT =     8640000.0000

            IN - OUT =       5.7220E-06              IN - OUT =      -2.3656E-07

 PERCENT DISCREPANCY =           0.00     PERCENT DISCREPANCY =          -0.00




         TIME SUMMARY AT END OF TIME STEP   29 IN STRESS PERIOD    1
                    SECONDS     MINUTES      HOURS       DAYS        YEARS
                    -----------------------------------------------------------
   TIME STEP LENGTH 2.19000E+06  36500.      608.33      25.347     6.93969E-02
 STRESS PERIOD TIME 6.35100E+07 1.05850E+06  17642.      735.07      2.0125    
         TOTAL TIME 6.35100E+07 1.05850E+06  17642.      735.07      2.0125    


end timestep


start timestep kper="1" kstp="30" mode="normal"

 UBDSV1 SAVING  STORAGE-AQUEOUS ON UNIT   1029 AT TIME STEP     30, STRESS PERIOD      1
 UBDSV1 SAVING     FLOW-JA-FACE ON UNIT   1029 AT TIME STEP     30, STRESS PERIOD      1
 UBDSV06 SAVING  SOURCE-SINK MIX IN MODEL GWT_P06-MF6      PACKAGE GWT_P06-MF6     CONNECTED TO MODEL GWT_P06-MF6      PACKAGE SSM              ON UNIT   1029 AT TIME STEP     30, STRESS PERIOD      1
1
  CONCENTRATION IN LAYER   1 AT END OF TIME STEP  30 IN STRESS PERIOD    1
  ---------------------------------------------------------------------------

                1               2               3               4               5               6               7               8               9              10
               11              12              13              14              15              16              17              18              19              20
               21              22              23              24              25              26              27              28              29              30
               31
 ................................................................................................................................................................................................................................................................................................................................................................................................................................................................................................................
   1      0.00000        1.027682E-46    7.328085E-44    2.559922E-41    5.573375E-39    8.118903E-37    7.821294E-35    4.242710E-33   -1.333376E-32   -2.444267E-29
        -2.214359E-27   -1.030053E-25   -2.634716E-24   -4.845595E-23   -6.489740E-22   -7.499068E-21   -6.489494E-22   -4.844541E-23   -2.632616E-24   -1.027554E-25
        -2.198261E-27   -2.386581E-29   -1.311318E-33    4.389695E-33    7.913918E-35    8.116337E-37    5.516075E-39    2.509993E-41    7.120380E-44    9.897962E-47
          0.00000    
   2     1.027682E-46    6.947159E-44    2.427968E-41    5.414577E-39    8.297619E-37    8.765541E-35    5.810269E-33    1.203074E-31   -2.083943E-29   -2.740964E-27
        -1.759149E-25   -6.845101E-24   -1.613319E-22   -2.617159E-21   -3.041348E-20   -2.921904E-19   -3.041246E-20   -2.616720E-21   -1.612349E-22   -6.832025E-24
        -1.749325E-25   -2.698919E-27   -1.974854E-29    1.381402E-31    5.992386E-33    8.864832E-35    8.291768E-37    5.357065E-39    2.380022E-41    6.749298E-44
         9.897572E-47
   3     7.328085E-44    2.427968E-41    5.351507E-39    8.361281E-37    9.318361E-35    6.934354E-33    2.375580E-31   -1.565484E-29   -3.035862E-27   -2.418356E-25
        -1.210569E-23   -3.992284E-22   -8.491895E-21   -1.209069E-19   -1.199125E-18   -1.014693E-17   -1.199092E-18   -1.208912E-19   -8.487984E-21   -3.986228E-22
        -1.205267E-23   -2.391617E-25   -2.952406E-27   -1.395281E-29    2.608449E-31    7.143372E-33    9.421860E-35    8.353660E-37    5.293653E-39    2.379674E-41
         7.118584E-44
   4     2.559922E-41    5.414577E-39    8.361281E-37    9.497371E-35    7.516531E-33    3.170553E-31   -1.082061E-29   -3.165170E-27   -2.949479E-25   -1.732624E-23
        -7.000420E-22   -1.949031E-20   -3.675601E-19   -4.561749E-18   -3.718717E-17   -2.909412E-16   -3.718642E-17   -4.561311E-18   -3.674316E-19   -1.946702E-20
        -6.976263E-22   -1.718192E-23   -2.895956E-25   -3.033190E-27   -8.560588E-30    3.443337E-31    7.741281E-33    9.602905E-35    8.353336E-37    5.355802E-39
         2.508878E-41
   5     5.573375E-39    8.297619E-37    9.318361E-35    7.516531E-33    3.451234E-31   -7.956430E-30   -3.207633E-27   -3.328739E-25   -2.182111E-23   -1.003316E-21
        -3.284444E-20   -7.526775E-19   -1.203852E-17   -1.346380E-16   -1.777622E-15   -7.794987E-15   -1.777590E-15   -1.346297E-16   -1.203551E-17   -7.519881E-19
        -3.275474E-20   -9.968966E-22   -2.153771E-23   -3.245418E-25   -3.034794E-27   -5.341403E-30    3.741566E-31    7.744385E-33    9.423939E-35    8.290838E-37
         5.513459E-39
   6     8.118903E-37    8.765541E-35    6.934354E-33    3.170553E-31   -7.956430E-30   -3.215624E-27   -3.528551E-25   -2.491843E-23   -1.254240E-21   -4.568361E-20
        -1.182660E-18   -2.068604E-17   -3.714584E-16   -5.604528E-15   -4.681230E-14   -1.471918E-13   -4.681180E-14   -5.604308E-15   -3.714030E-16   -2.067285E-17
        -1.180165E-18   -4.545657E-20   -1.242214E-21   -2.449665E-23   -3.424133E-25   -3.024139E-27   -5.290077E-30    3.452612E-31    7.152313E-33    8.869015E-35
         8.114953E-37
   7     7.821294E-35    5.810269E-33    2.375580E-31   -1.082061E-29   -3.207633E-27   -3.528551E-25   -2.603086E-23   -1.398258E-21   -5.514749E-20   -1.565023E-18
        -3.044923E-17   -7.720296E-16   -1.439966E-14   -1.509478E-13   -8.892435E-13   -9.093081E-13   -8.892402E-13   -1.509449E-13   -1.439917E-14   -7.718104E-16
        -3.040517E-17   -1.559160E-18   -5.475343E-20   -1.381699E-21   -2.554144E-23   -3.421432E-25   -3.026845E-27   -8.422883E-30    2.624954E-31    6.006047E-33
         7.920215E-35
   8     4.242710E-33    1.203074E-31   -1.565484E-29   -3.165170E-27   -3.328739E-25   -2.491843E-23   -1.398258E-21   -5.866350E-20   -1.796104E-18   -3.876064E-17
        -1.220166E-15   -2.766524E-14   -3.259007E-13   -2.448444E-12    1.927233E-11    3.784549E-10    1.927210E-11   -2.448453E-12   -3.258908E-13   -2.767008E-14
        -1.219447E-15   -3.866599E-17   -1.786983E-18   -5.817979E-20   -1.381148E-21   -2.447143E-23   -3.238718E-25   -3.020541E-27   -1.377136E-29    1.401488E-31
         4.406249E-33
   9    -1.333376E-32   -2.083943E-29   -3.035862E-27   -2.949479E-25   -2.182111E-23   -1.254240E-21   -5.514749E-20   -1.796104E-18   -4.209088E-17   -1.524447E-15
        -3.965817E-14   -5.346128E-13   -3.998469E-12    1.294851E-10    4.639836E-09    7.891659E-08    4.639837E-09    1.294834E-10   -3.998335E-12   -5.345969E-13
        -3.966862E-14   -1.523127E-15   -4.196413E-17   -1.786586E-18   -5.472311E-20   -1.240975E-21   -2.150256E-23   -2.888468E-25   -2.939778E-27   -1.957553E-29
         6.274116E-34
  10    -2.444267E-29   -2.740964E-27   -2.418356E-25   -1.732624E-23   -1.003316E-21   -4.568361E-20   -1.565023E-18   -3.876064E-17   -1.524447E-15   -4.448823E-14
        -6.854035E-13   -4.556141E-12    4.011384E-10    2.413343E-08    9.530185E-07    1.704856E-05    9.530186E-07    2.413345E-08    4.011312E-10   -4.554886E-12
        -6.854229E-13   -4.450268E-14   -1.523056E-15   -3.865626E-17   -1.558377E-18   -4.542079E-20   -9.957611E-22   -1.715407E-23   -2.386136E-25   -2.689949E-27
        -2.373989E-29
  11    -2.214359E-27   -1.759149E-25   -1.210569E-23   -7.000420E-22   -3.284444E-20   -1.182660E-18   -3.044923E-17   -1.220166E-15   -3.965817E-14   -6.854035E-13
        -4.516066E-12    6.936948E-10    6.183102E-08    4.059417E-06    1.590593E-04    2.729200E-03    1.590593E-04    4.059417E-06    6.183110E-08    6.936731E-10
        -4.513412E-12   -6.854311E-13   -3.967094E-14   -1.219337E-15   -3.039644E-17   -1.179618E-18   -3.273358E-20   -6.970214E-22   -1.203871E-23   -1.746642E-25
        -2.193746E-27
  12    -1.030053E-25   -6.845101E-24   -3.992284E-22   -1.949031E-20   -7.526775E-19   -2.068604E-17   -7.720296E-16   -2.766524E-14   -5.346128E-13   -4.556141E-12
         6.936948E-10    8.368753E-08    8.003318E-06    5.026729E-04    1.812705E-02    0.271276        1.812705E-02    5.026729E-04    8.003317E-06    8.368767E-08
         6.936708E-10   -4.554519E-12   -5.346012E-13   -2.767200E-14   -7.717602E-16   -2.066931E-17   -7.517929E-19   -1.946012E-20   -3.984357E-22   -6.827833E-24
        -1.026726E-25
  13    -2.634716E-24   -1.613319E-22   -8.491895E-21   -3.675601E-19   -1.203852E-17   -3.714584E-16   -1.439966E-14   -3.259007E-13   -3.998469E-12    4.011384E-10
         6.183102E-08    8.003318E-06    7.130166E-04    3.921866E-02     1.05745         8.99078         1.05745        3.921866E-02    7.130166E-04    8.003317E-06
         6.183111E-08    4.011295E-10   -3.998231E-12   -3.258907E-13   -1.439925E-14   -3.713899E-16   -1.203470E-17   -3.673952E-19   -8.486814E-21   -1.612044E-22
        -2.631927E-24
  14    -4.845595E-23   -2.617159E-21   -1.209069E-19   -4.561749E-18   -1.346380E-16   -5.604528E-15   -1.509478E-13   -2.448444E-12    1.294851E-10    2.413343E-08
         4.059417E-06    5.026729E-04    3.921866E-02     1.46622         17.4914         56.0134         17.4914         1.46622        3.921866E-02    5.026729E-04
         4.059416E-06    2.413345E-08    1.294831E-10   -2.448450E-12   -1.509446E-13   -5.604276E-15   -1.346281E-16   -4.561222E-18   -1.208878E-19   -2.616621E-21
        -4.844291E-23
  15    -6.489740E-22   -3.041348E-20   -1.199125E-18   -3.718717E-17   -1.777622E-15   -4.681230E-14   -8.892435E-13    1.927233E-11    4.639836E-09    9.530185E-07
         1.590593E-04    1.812705E-02     1.05745         17.4914         66.2261         94.4988         66.2261         17.4914         1.05745        1.812705E-02
         1.590593E-04    9.530185E-07    4.639838E-09    1.927205E-11   -8.892397E-13   -4.681172E-14   -1.777586E-15   -3.718633E-17   -1.199089E-18   -3.041234E-20
        -6.489467E-22
  16    -7.499068E-21   -2.921904E-19   -1.014693E-17   -2.909412E-16   -7.794987E-15   -1.471918E-13   -9.093081E-13    3.784549E-10    7.891659E-08    1.704856E-05
         2.729200E-03    0.271276         8.99078         56.0134         94.4988         99.9944         94.4988         56.0134         8.99078        0.271276    
         2.729200E-03    1.704856E-05    7.891659E-08    3.784549E-10   -9.093079E-13   -1.471918E-13   -7.794987E-15   -2.909412E-16   -1.014693E-17   -2.921904E-19
        -7.499068E-21
  17    -6.489494E-22   -3.041246E-20   -1.199092E-18   -3.718642E-17   -1.777590E-15   -4.681180E-14   -8.892402E-13    1.927210E-11    4.639837E-09    9.530186E-07
         1.590593E-04    1.812705E-02     1.05745         17.4914         66.2261         94.4988         66.2261         17.4914         1.05745        1.812705E-02
         1.590593E-04    9.530185E-07    4.639836E-09    1.927234E-11   -8.892435E-13   -4.681230E-14   -1.777622E-15   -3.718717E-17   -1.199125E-18   -3.041348E-20
        -6.489739E-22
  18    -4.844541E-23   -2.616720E-21   -1.208912E-19   -4.561311E-18   -1.346297E-16   -5.604308E-15   -1.509449E-13   -2.448453E-12    1.294834E-10    2.413345E-08
         4.059417E-06    5.026729E-04    3.921866E-02     1.46622         17.4914         56.0134         17.4914         1.46622        3.921866E-02    5.026729E-04
         4.059417E-06    2.413343E-08    1.294851E-10   -2.448444E-12   -1.509478E-13   -5.604528E-15   -1.346380E-16   -4.561749E-18   -1.209069E-19   -2.617159E-21
        -4.845595E-23
  19    -2.632616E-24   -1.612349E-22   -8.487984E-21   -3.674316E-19   -1.203551E-17   -3.714030E-16   -1.439917E-14   -3.258908E-13   -3.998335E-12    4.011312E-10
         6.183110E-08    8.003317E-06    7.130166E-04    3.921866E-02     1.05745         8.99078         1.05745        3.921866E-02    7.130166E-04    8.003318E-06
         6.183102E-08    4.011384E-10   -3.998469E-12   -3.259007E-13   -1.439966E-14   -3.714584E-16   -1.203852E-17   -3.675601E-19   -8.491895E-21   -1.613319E-22
        -2.634716E-24
  20    -1.027554E-25   -6.832025E-24   -3.986228E-22   -1.946702E-20   -7.519881E-19   -2.067285E-17   -7.718104E-16   -2.767008E-14   -5.345969E-13   -4.554886E-12
         6.936731E-10    8.368767E-08    8.003317E-06    5.026729E-04    1.812705E-02    0.271276        1.812705E-02    5.026729E-04    8.003318E-06    8.368753E-08
         6.936948E-10   -4.556141E-12   -5.346128E-13   -2.766524E-14   -7.720296E-16   -2.068604E-17   -7.526775E-19   -1.949031E-20   -3.992284E-22   -6.845101E-24
        -1.030053E-25
  21    -2.198261E-27   -1.749325E-25   -1.205267E-23   -6.976263E-22   -3.275474E-20   -1.180165E-18   -3.040517E-17   -1.219447E-15   -3.966862E-14   -6.854229E-13
        -4.513412E-12    6.936708E-10    6.183111E-08    4.059416E-06    1.590593E-04    2.729200E-03    1.590593E-04    4.059417E-06    6.183102E-08    6.936948E-10
        -4.516066E-12   -6.854035E-13   -3.965817E-14   -1.220166E-15   -3.044923E-17   -1.182660E-18   -3.284444E-20   -7.000420E-22   -1.210569E-23   -1.759149E-25
        -2.214359E-27
  22    -2.386581E-29   -2.698919E-27   -2.391617E-25   -1.718192E-23   -9.968966E-22   -4.545657E-20   -1.559160E-18   -3.866599E-17   -1.523127E-15   -4.450268E-14
        -6.854311E-13   -4.554519E-12    4.011295E-10    2.413345E-08    9.530185E-07    1.704856E-05    9.530185E-07    2.413343E-08    4.011384E-10   -4.556141E-12
        -6.854035E-13   -4.448823E-14   -1.524447E-15   -3.876064E-17   -1.565023E-18   -4.568361E-20   -1.003316E-21   -1.732624E-23   -2.418356E-25   -2.740964E-27
        -2.444267E-29
  23    -1.311318E-33   -1.974854E-29   -2.952406E-27   -2.895956E-25   -2.153771E-23   -1.242214E-21   -5.475343E-20   -1.786983E-18   -4.196413E-17   -1.523056E-15
        -3.967094E-14   -5.346012E-13   -3.998231E-12    1.294831E-10    4.639838E-09    7.891659E-08    4.639836E-09    1.294851E-10   -3.998469E-12   -5.346128E-13
        -3.965817E-14   -1.524447E-15   -4.209088E-17   -1.796104E-18   -5.514749E-20   -1.254240E-21   -2.182111E-23   -2.949479E-25   -3.035862E-27   -2.083943E-29
        -1.333376E-32
  24     4.389695E-33    1.381402E-31   -1.395281E-29   -3.033190E-27   -3.245418E-25   -2.449665E-23   -1.381699E-21   -5.817979E-20   -1.786586E-18   -3.865626E-17
        -1.219337E-15   -2.767200E-14   -3.258907E-13   -2.448450E-12    1.927205E-11    3.784549E-10    1.927234E-11   -2.448444E-12   -3.259007E-13   -2.766524E-14
        -1.220166E-15   -3.876064E-17   -1.796104E-18   -5.866350E-20   -1.398258E-21   -2.491843E-23   -3.328739E-25   -3.165170E-27   -1.565484E-29    1.203074E-31
         4.242710E-33
  25     7.913918E-35    5.992386E-33    2.608449E-31   -8.560588E-30   -3.034794E-27   -3.424133E-25   -2.554144E-23   -1.381148E-21   -5.472311E-20   -1.558377E-18
        -3.039644E-17   -7.717602E-16   -1.439925E-14   -1.509446E-13   -8.892397E-13   -9.093079E-13   -8.892435E-13   -1.509478E-13   -1.439966E-14   -7.720296E-16
        -3.044923E-17   -1.565023E-18   -5.514749E-20   -1.398258E-21   -2.603086E-23   -3.528551E-25   -3.207633E-27   -1.082061E-29    2.375580E-31    5.810269E-33
         7.821295E-35
  26     8.116337E-37    8.864832E-35    7.143372E-33    3.443337E-31   -5.341403E-30   -3.024139E-27   -3.421432E-25   -2.447143E-23   -1.240975E-21   -4.542079E-20
        -1.179618E-18   -2.066931E-17   -3.713899E-16   -5.604276E-15   -4.681172E-14   -1.471918E-13   -4.681230E-14   -5.604528E-15   -3.714584E-16   -2.068604E-17
        -1.182660E-18   -4.568361E-20   -1.254240E-21   -2.491843E-23   -3.528551E-25   -3.215624E-27   -7.956429E-30    3.170553E-31    6.934354E-33    8.765541E-35
         8.118903E-37
  27     5.516075E-39    8.291768E-37    9.421860E-35    7.741281E-33    3.741566E-31   -5.290077E-30   -3.026845E-27   -3.238718E-25   -2.150256E-23   -9.957611E-22
        -3.273358E-20   -7.517929E-19   -1.203470E-17   -1.346281E-16   -1.777586E-15   -7.794987E-15   -1.777622E-15   -1.346380E-16   -1.203852E-17   -7.526775E-19
        -3.284444E-20   -1.003316E-21   -2.182111E-23   -3.328739E-25   -3.207633E-27   -7.956429E-30    3.451234E-31    7.516531E-33    9.318361E-35    8.297619E-37
         5.573375E-39
  28     2.509993E-41    5.357065E-39    8.353660E-37    9.602905E-35    7.744385E-33    3.452612E-31   -8.422883E-30   -3.020541E-27   -2.888468E-25   -1.715407E-23
        -6.970214E-22   -1.946012E-20   -3.673952E-19   -4.561222E-18   -3.718633E-17   -2.909412E-16   -3.718717E-17   -4.561749E-18   -3.675601E-19   -1.949031E-20
        -7.000420E-22   -1.732624E-23   -2.949479E-25   -3.165170E-27   -1.082061E-29    3.170553E-31    7.516531E-33    9.497371E-35    8.361281E-37    5.414577E-39
         2.559922E-41
  29     7.120380E-44    2.380022E-41    5.293653E-39    8.353336E-37    9.423939E-35    7.152313E-33    2.624954E-31   -1.377136E-29   -2.939778E-27   -2.386136E-25
        -1.203871E-23   -3.984357E-22   -8.486814E-21   -1.208878E-19   -1.199089E-18   -1.014693E-17   -1.199125E-18   -1.209069E-19   -8.491895E-21   -3.992284E-22
        -1.210569E-23   -2.418356E-25   -3.035862E-27   -1.565484E-29    2.375580E-31    6.934354E-33    9.318361E-35    8.361281E-37    5.351507E-39    2.427968E-41
         7.328085E-44
  30     9.897962E-47    6.749298E-44    2.379674E-41    5.355802E-39    8.290838E-37    8.869015E-35    6.006047E-33    1.401488E-31   -1.957553E-29   -2.689949E-27
        -1.746642E-25   -6.827833E-24   -1.612044E-22   -2.616621E-21   -3.041234E-20   -2.921904E-19   -3.041348E-20   -2.617159E-21   -1.613319E-22   -6.845101E-24
        -1.759149E-25   -2.740964E-27   -2.083943E-29    1.203074E-31    5.810269E-33    8.765541E-35    8.297619E-37    5.414577E-39    2.427968E-41    6.947159E-44
         1.027682E-46
  31      0.00000        9.897572E-47    7.118584E-44    2.508878E-41    5.513459E-39    8.114953E-37    7.920215E-35    4.406249E-33    6.274116E-34   -2.373989E-29
        -2.193746E-27   -1.026726E-25   -2.631927E-24   -4.844291E-23   -6.489467E-22   -7.499068E-21   -6.489739E-22   -4.845595E-23   -2.634716E-24   -1.030053E-25
        -2.214359E-27   -2.444267E-29   -1.333376E-32    4.242710E-33    7.821295E-35    8.118903E-37    5.573375E-39    2.559922E-41    7.328085E-44    1.027682E-46
          0.00000    

 CONCENTRATION WILL BE SAVED ON UNIT 1030 AT END OF TIME STEP   30, STRESS PERIOD    1


  MASS BUDGET FOR ENTIRE MODEL AT END OF TIME STEP   30, STRESS PERIOD   1
  ---------------------------------------------------------------------------------------------------

     CUMULATIVE MASS      M       RATES FOR THIS TIME STEP      M/T          PACKAGE NAME    
     ------------------                 ------------------------                     ----------------

           IN:                                      IN:
           ---                                      ---
     STORAGE-AQUEOUS =       4.8899E-03       STORAGE-AQUEOUS =       1.0262E-06     MST                              
                 WEL =  6570000000.0000                   WEL =     8640000.0000     SSM_WEL-1                        
                 CHD =           0.0000                   CHD =           0.0000     SSM_CHD-1                        

            TOTAL IN =  6570000000.0049              TOTAL IN =     8640000.0000

          OUT:                                     OUT:
          ----                                     ----
     STORAGE-AQUEOUS =  6570000000.0049       STORAGE-AQUEOUS =     8640000.0000     MST                              
                 WEL =           0.0000                   WEL =           0.0000     SSM_WEL-1                        
                 CHD =       7.5562E-18                   CHD =       2.6461E-29     SSM_CHD-1                        

           TOTAL OUT =  6570000000.0049             TOTAL OUT =     8640000.0000

            IN - OUT =           0.0000              IN - OUT =      -2.3097E-07

 PERCENT DISCREPANCY =           0.00     PERCENT DISCREPANCY =          -0.00




         TIME SUMMARY AT END OF TIME STEP   30 IN STRESS PERIOD    1
                    SECONDS     MINUTES      HOURS       DAYS        YEARS
                    -----------------------------------------------------------
   TIME STEP LENGTH 2.19000E+06  36500.      608.33      25.347     6.93969E-02
 STRESS PERIOD TIME 6.57000E+07 1.09500E+06  18250.      760.42      2.0819    
         TOTAL TIME 6.57000E+07 1.09500E+06  18250.      760.42      2.0819    


end timestep


start timestep kper="1" kstp="31" mode="normal"

 UBDSV1 SAVING  STORAGE-AQUEOUS ON UNIT   1029 AT TIME STEP     31, STRESS PERIOD      1
 UBDSV1 SAVING     FLOW-JA-FACE ON UNIT   1029 AT TIME STEP     31, STRESS PERIOD      1
 UBDSV06 SAVING  SOURCE-SINK MIX IN MODEL GWT_P06-MF6      PACKAGE GWT_P06-MF6     CONNECTED TO MODEL GWT_P06-MF6      PACKAGE SSM              ON UNIT   1029 AT TIME STEP     31, STRESS PERIOD      1
1
  CONCENTRATION IN LAYER   1 AT END OF TIME STEP  31 IN STRESS PERIOD    1
  ---------------------------------------------------------------------------

                1               2               3               4               5               6               7               8               9              10
               11              12              13              14              15              16              17              18              19              20
               21              22              23              24              25              26              27              28              29              30
               31
 ................................................................................................................................................................................................................................................................................................................................................................................................................................................................................................................
   1      0.00000        1.696435E-46    1.172675E-43    3.948678E-41    8.212377E-39    1.123619E-36    9.740476E-35    3.859516E-33   -2.243613E-31   -4.720428E-29
        -3.619092E-27   -1.571720E-25   -3.929001E-24   -6.935902E-23   -8.861650E-22   -9.618194E-21   -8.861329E-22   -6.934524E-23   -3.926199E-24   -1.568301E-25
        -3.596268E-27   -4.634934E-29   -2.054153E-31    4.113936E-33    9.939500E-35    1.129566E-36    8.168532E-39    3.891078E-41    1.145425E-43    1.642950E-46
          0.00000    
   2     1.696435E-46    1.111742E-43    3.746011E-41    7.986369E-39    1.152538E-36    1.107857E-34    5.884314E-33   -7.800884E-32   -4.687223E-29   -4.667461E-27
        -2.695349E-25   -9.878225E-24   -2.257169E-22   -3.529249E-21   -3.918619E-20   -3.563598E-19   -3.918493E-20   -3.528696E-21   -2.255926E-22   -9.861051E-24
        -2.682013E-25   -4.608146E-27   -4.525818E-29   -4.987331E-32    6.202120E-33    1.129650E-34    1.158288E-36    7.941654E-39    3.690637E-41    1.085780E-43
         1.642894E-46
   3     1.172675E-43    3.746011E-41    7.895906E-39    1.163304E-36    1.186275E-34    7.336693E-33    5.173734E-32   -4.427220E-29   -5.450443E-27   -3.784075E-25
        -1.747931E-23   -5.451484E-22   -1.118600E-20   -1.546273E-19   -1.466005E-18   -1.099923E-17   -1.465966E-18   -1.546082E-19   -1.118118E-20   -5.443844E-22
        -1.741022E-23   -3.747965E-25   -5.333024E-27   -4.175410E-29    8.856187E-32    7.703302E-33    1.209283E-34    1.168951E-36    7.850639E-39    3.690219E-41
         1.145185E-43
   4     3.948678E-41    7.986369E-39    1.163304E-36    1.211709E-34    8.089457E-33    1.404188E-31   -4.118510E-29   -5.980227E-27   -4.722370E-25   -2.526824E-23
        -9.530300E-22   -2.509820E-20   -4.519120E-19   -5.556575E-18   -4.355389E-17   -3.429753E-16   -4.355304E-17   -5.556061E-18   -4.517610E-19   -2.507002E-20
        -9.500021E-22   -2.508107E-23   -4.650339E-25   -5.794845E-27   -3.784159E-29    1.836098E-31    8.484650E-33    1.235284E-34    1.168977E-36    7.940491E-39
         3.889741E-41
   5     8.212377E-39    1.152538E-36    1.186275E-34    8.089457E-33    1.718354E-31   -3.920978E-29   -6.289643E-27   -5.426980E-25   -3.215078E-23   -1.371314E-21
        -4.211053E-20   -9.092052E-19   -1.342394E-17   -1.575040E-16   -2.026156E-15   -8.915373E-15   -2.026121E-15   -1.574945E-16   -1.342069E-17   -9.084084E-19
        -4.200243E-20   -1.363297E-21   -3.178440E-23   -5.315085E-25   -6.047094E-27   -3.534121E-29    2.178248E-31    8.490208E-33    1.209796E-34    1.158373E-36
         8.166138E-39
   6     1.123619E-36    1.107857E-34    7.336693E-33    1.404188E-31   -3.920978E-29   -6.391751E-27   -5.809216E-25   -3.696861E-23   -1.721892E-21   -5.870537E-20
        -1.430853E-18   -2.360930E-17   -4.423438E-16   -6.481009E-15   -5.414702E-14   -1.705796E-13   -5.414643E-14   -6.480763E-15   -4.422802E-16   -2.359478E-17
        -1.427964E-18   -5.843210E-20   -1.706907E-21   -3.642433E-23   -5.669136E-25   -6.123136E-27   -3.526555E-29    1.850814E-31    7.719256E-33    1.130662E-34
         1.129731E-36
   7     9.740476E-35    5.884314E-33    5.173734E-32   -4.118510E-29   -6.289643E-27   -5.809216E-25   -3.871113E-23   -1.924507E-21   -7.106972E-20   -1.904981E-18
        -3.549748E-17   -9.214226E-16   -1.731966E-14   -1.715097E-13   -1.011859E-12   -5.216078E-13   -1.011856E-12   -1.715064E-13   -1.731906E-14   -9.211841E-16
        -3.544823E-17   -1.898163E-18   -7.059558E-20   -1.903897E-21   -3.808003E-23   -5.665538E-25   -6.036011E-27   -3.763868E-29    9.117522E-32    6.226323E-33
         9.954224E-35
   8     3.859516E-33   -7.800884E-32   -4.427220E-29   -5.980227E-27   -5.426980E-25   -3.696861E-23   -1.924507E-21   -7.568664E-20   -2.194957E-18   -4.570279E-17
        -1.458672E-15   -3.314014E-14   -3.725022E-13   -2.572564E-12    2.747510E-11    4.906675E-10    2.747483E-11   -2.572580E-12   -3.724905E-13   -3.314490E-14
        -1.457912E-15   -4.559533E-17   -2.184322E-18   -7.510469E-20   -1.903215E-21   -3.639201E-23   -5.306156E-25   -5.777199E-27   -4.148688E-29   -4.670391E-32
         4.142945E-33
   9    -2.243613E-31   -4.687223E-29   -5.450443E-27   -4.722370E-25   -3.215078E-23   -1.721892E-21   -7.106972E-20   -2.194957E-18   -4.980126E-17   -1.824646E-15
        -4.747435E-14   -6.218047E-13   -3.750877E-12    1.769315E-10    6.196036E-09    1.043524E-07    6.196038E-09    1.769298E-10   -3.750776E-12   -6.217821E-13
        -4.748549E-14   -1.823267E-15   -4.965652E-17   -2.183859E-18   -7.055920E-20   -1.705370E-21   -3.173927E-23   -4.640341E-25   -5.315382E-27   -4.500350E-29
        -2.023620E-31
  10    -4.720428E-29   -4.667461E-27   -3.784075E-25   -2.526824E-23   -1.371314E-21   -5.870537E-20   -1.904981E-18   -4.570279E-17   -1.824646E-15   -5.328004E-14
        -8.031989E-13   -3.539216E-12    5.471721E-10    3.252838E-08    1.261555E-06    2.193218E-05    1.261555E-06    3.252840E-08    5.471646E-10   -3.538017E-12
        -8.032032E-13   -5.329596E-14   -1.823194E-15   -4.558427E-17   -1.897254E-18   -5.838916E-20   -1.361887E-21   -2.504522E-23   -3.740622E-25   -4.595583E-27
        -4.616376E-29
  11    -3.619092E-27   -2.695349E-25   -1.747931E-23   -9.530300E-22   -4.211053E-20   -1.430853E-18   -3.549748E-17   -1.458672E-15   -4.747435E-14   -8.031989E-13
        -3.063220E-12    9.474479E-10    8.358816E-08    5.373165E-06    2.048284E-04    3.408411E-03    2.048284E-04    5.373165E-06    8.358824E-08    9.474256E-10
        -3.060613E-12   -8.032104E-13   -4.748806E-14   -1.457800E-15   -3.543846E-17   -1.427333E-18   -4.197703E-20   -9.492485E-22   -1.739218E-23   -2.678401E-25
        -3.589919E-27
  12    -1.571720E-25   -9.878225E-24   -5.451484E-22   -2.509820E-20   -9.092052E-19   -2.360930E-17   -9.214226E-16   -3.314014E-14   -6.218047E-13   -3.539216E-12
         9.474479E-10    1.132062E-07    1.059023E-05    6.467658E-04    2.260047E-02    0.324265        2.260047E-02    6.467658E-04    1.059023E-05    1.132064E-07
         9.474232E-10   -3.537643E-12   -6.217852E-13   -3.314693E-14   -9.211313E-16   -2.359091E-17   -9.081837E-19   -2.506172E-20   -5.441502E-22   -9.855599E-24
        -1.567180E-25
  13    -3.929001E-24   -2.257169E-22   -1.118600E-20   -4.519120E-19   -1.342394E-17   -4.423438E-16   -1.731966E-14   -3.725022E-13   -3.750877E-12    5.471721E-10
         8.358816E-08    1.059023E-05    9.166142E-04    4.874116E-02     1.25039         9.98198         1.25039        4.874116E-02    9.166142E-04    1.059023E-05
         8.358825E-08    5.471629E-10   -3.750672E-12   -3.724901E-13   -1.731914E-14   -4.422654E-16   -1.341982E-17   -4.517185E-19   -1.117976E-20   -2.255540E-22
        -3.925293E-24
  14    -6.935902E-23   -3.529249E-21   -1.546273E-19   -5.556575E-18   -1.575040E-16   -6.481009E-15   -1.715097E-13   -2.572564E-12    1.769315E-10    3.252838E-08
         5.373165E-06    6.467658E-04    4.874116E-02     1.72740         19.1796         58.0972         19.1796         1.72740        4.874116E-02    6.467658E-04
         5.373165E-06    3.252841E-08    1.769295E-10   -2.572579E-12   -1.715060E-13   -6.480727E-15   -1.574927E-16   -5.555956E-18   -1.546042E-19   -3.528573E-21
        -6.934202E-23
  15    -8.861650E-22   -3.918619E-20   -1.466005E-18   -4.355389E-17   -2.026156E-15   -5.414702E-14   -1.011859E-12    2.747510E-11    6.196036E-09    1.261555E-06
         2.048284E-04    2.260047E-02     1.25039         19.1796         68.2713         94.9288         68.2713         19.1796         1.25039        2.260047E-02
         2.048284E-04    1.261555E-06    6.196038E-09    2.747478E-11   -1.011856E-12   -5.414635E-14   -2.026116E-15   -4.355294E-17   -1.465961E-18   -3.918479E-20
        -8.861293E-22
  16    -9.618194E-21   -3.563598E-19   -1.099923E-17   -3.429753E-16   -8.915373E-15   -1.705796E-13   -5.216078E-13    4.906675E-10    1.043524E-07    2.193218E-05
         3.408411E-03    0.324265         9.98198         58.0972         94.9288         99.9960         94.9288         58.0972         9.98198        0.324265    
         3.408411E-03    2.193218E-05    1.043524E-07    4.906675E-10   -5.216076E-13   -1.705796E-13   -8.915373E-15   -3.429754E-16   -1.099923E-17   -3.563598E-19
        -9.618194E-21
  17    -8.861329E-22   -3.918493E-20   -1.465966E-18   -4.355304E-17   -2.026121E-15   -5.414643E-14   -1.011856E-12    2.747483E-11    6.196038E-09    1.261555E-06
         2.048284E-04    2.260047E-02     1.25039         19.1796         68.2713         94.9288         68.2713         19.1796         1.25039        2.260047E-02
         2.048284E-04    1.261555E-06    6.196036E-09    2.747510E-11   -1.011859E-12   -5.414702E-14   -2.026156E-15   -4.355389E-17   -1.466005E-18   -3.918619E-20
        -8.861650E-22
  18    -6.934524E-23   -3.528696E-21   -1.546082E-19   -5.556061E-18   -1.574945E-16   -6.480763E-15   -1.715064E-13   -2.572580E-12    1.769298E-10    3.252840E-08
         5.373165E-06    6.467658E-04    4.874116E-02     1.72740         19.1796         58.0972         19.1796         1.72740        4.874116E-02    6.467658E-04
         5.373165E-06    3.252838E-08    1.769315E-10   -2.572564E-12   -1.715097E-13   -6.481009E-15   -1.575040E-16   -5.556575E-18   -1.546273E-19   -3.529249E-21
        -6.935902E-23
  19    -3.926199E-24   -2.255926E-22   -1.118118E-20   -4.517610E-19   -1.342069E-17   -4.422802E-16   -1.731906E-14   -3.724905E-13   -3.750776E-12    5.471646E-10
         8.358824E-08    1.059023E-05    9.166142E-04    4.874116E-02     1.25039         9.98198         1.25039        4.874116E-02    9.166142E-04    1.059023E-05
         8.358816E-08    5.471721E-10   -3.750877E-12   -3.725022E-13   -1.731966E-14   -4.423438E-16   -1.342394E-17   -4.519120E-19   -1.118600E-20   -2.257169E-22
        -3.929001E-24
  20    -1.568301E-25   -9.861051E-24   -5.443844E-22   -2.507002E-20   -9.084084E-19   -2.359478E-17   -9.211841E-16   -3.314490E-14   -6.217821E-13   -3.538017E-12
         9.474256E-10    1.132064E-07    1.059023E-05    6.467658E-04    2.260047E-02    0.324265        2.260047E-02    6.467658E-04    1.059023E-05    1.132062E-07
         9.474479E-10   -3.539216E-12   -6.218047E-13   -3.314014E-14   -9.214226E-16   -2.360930E-17   -9.092052E-19   -2.509820E-20   -5.451484E-22   -9.878225E-24
        -1.571720E-25
  21    -3.596268E-27   -2.682013E-25   -1.741022E-23   -9.500021E-22   -4.200243E-20   -1.427964E-18   -3.544823E-17   -1.457912E-15   -4.748549E-14   -8.032032E-13
        -3.060613E-12    9.474232E-10    8.358825E-08    5.373165E-06    2.048284E-04    3.408411E-03    2.048284E-04    5.373165E-06    8.358816E-08    9.474479E-10
        -3.063220E-12   -8.031989E-13   -4.747435E-14   -1.458672E-15   -3.549748E-17   -1.430853E-18   -4.211053E-20   -9.530300E-22   -1.747931E-23   -2.695349E-25
        -3.619092E-27
  22    -4.634934E-29   -4.608146E-27   -3.747965E-25   -2.508107E-23   -1.363297E-21   -5.843210E-20   -1.898163E-18   -4.559533E-17   -1.823267E-15   -5.329596E-14
        -8.032104E-13   -3.537643E-12    5.471629E-10    3.252841E-08    1.261555E-06    2.193218E-05    1.261555E-06    3.252838E-08    5.471721E-10   -3.539216E-12
        -8.031989E-13   -5.328004E-14   -1.824646E-15   -4.570279E-17   -1.904981E-18   -5.870537E-20   -1.371314E-21   -2.526824E-23   -3.784075E-25   -4.667461E-27
        -4.720428E-29
  23    -2.054153E-31   -4.525818E-29   -5.333024E-27   -4.650339E-25   -3.178440E-23   -1.706907E-21   -7.059558E-20   -2.184322E-18   -4.965652E-17   -1.823194E-15
        -4.748806E-14   -6.217852E-13   -3.750672E-12    1.769295E-10    6.196038E-09    1.043524E-07    6.196036E-09    1.769315E-10   -3.750877E-12   -6.218047E-13
        -4.747435E-14   -1.824646E-15   -4.980126E-17   -2.194957E-18   -7.106972E-20   -1.721892E-21   -3.215078E-23   -4.722370E-25   -5.450443E-27   -4.687223E-29
        -2.243613E-31
  24     4.113936E-33   -4.987331E-32   -4.175410E-29   -5.794845E-27   -5.315085E-25   -3.642433E-23   -1.903897E-21   -7.510469E-20   -2.183859E-18   -4.558427E-17
        -1.457800E-15   -3.314693E-14   -3.724901E-13   -2.572579E-12    2.747478E-11    4.906675E-10    2.747510E-11   -2.572564E-12   -3.725022E-13   -3.314014E-14
        -1.458672E-15   -4.570279E-17   -2.194957E-18   -7.568664E-20   -1.924507E-21   -3.696861E-23   -5.426980E-25   -5.980227E-27   -4.427219E-29   -7.800884E-32
         3.859516E-33
  25     9.939500E-35    6.202120E-33    8.856187E-32   -3.784159E-29   -6.047094E-27   -5.669136E-25   -3.808003E-23   -1.903215E-21   -7.055920E-20   -1.897254E-18
        -3.543846E-17   -9.211313E-16   -1.731914E-14   -1.715060E-13   -1.011856E-12   -5.216076E-13   -1.011859E-12   -1.715097E-13   -1.731966E-14   -9.214226E-16
        -3.549748E-17   -1.904981E-18   -7.106972E-20   -1.924507E-21   -3.871113E-23   -5.809216E-25   -6.289643E-27   -4.118510E-29    5.173735E-32    5.884314E-33
         9.740476E-35
  26     1.129566E-36    1.129650E-34    7.703302E-33    1.836098E-31   -3.534121E-29   -6.123136E-27   -5.665538E-25   -3.639201E-23   -1.705370E-21   -5.838916E-20
        -1.427333E-18   -2.359091E-17   -4.422654E-16   -6.480727E-15   -5.414635E-14   -1.705796E-13   -5.414702E-14   -6.481009E-15   -4.423438E-16   -2.360930E-17
        -1.430853E-18   -5.870537E-20   -1.721892E-21   -3.696861E-23   -5.809216E-25   -6.391751E-27   -3.920978E-29    1.404188E-31    7.336694E-33    1.107857E-34
         1.123619E-36
  27     8.168532E-39    1.158288E-36    1.209283E-34    8.484650E-33    2.178248E-31   -3.526555E-29   -6.036011E-27   -5.306156E-25   -3.173927E-23   -1.361887E-21
        -4.197703E-20   -9.081837E-19   -1.341982E-17   -1.574927E-16   -2.026116E-15   -8.915373E-15   -2.026156E-15   -1.575040E-16   -1.342394E-17   -9.092052E-19
        -4.211053E-20   -1.371314E-21   -3.215078E-23   -5.426980E-25   -6.289643E-27   -3.920978E-29    1.718354E-31    8.089457E-33    1.186275E-34    1.152538E-36
         8.212377E-39
  28     3.891078E-41    7.941654E-39    1.168951E-36    1.235284E-34    8.490208E-33    1.850814E-31   -3.763868E-29   -5.777199E-27   -4.640341E-25   -2.504522E-23
        -9.492485E-22   -2.506172E-20   -4.517185E-19   -5.555956E-18   -4.355294E-17   -3.429754E-16   -4.355389E-17   -5.556575E-18   -4.519120E-19   -2.509820E-20
        -9.530300E-22   -2.526824E-23   -4.722370E-25   -5.980227E-27   -4.118510E-29    1.404188E-31    8.089457E-33    1.211709E-34    1.163304E-36    7.986369E-39
         3.948678E-41
  29     1.145425E-43    3.690637E-41    7.850639E-39    1.168977E-36    1.209796E-34    7.719256E-33    9.117522E-32   -4.148688E-29   -5.315382E-27   -3.740622E-25
        -1.739218E-23   -5.441502E-22   -1.117976E-20   -1.546042E-19   -1.465961E-18   -1.099923E-17   -1.466005E-18   -1.546273E-19   -1.118600E-20   -5.451484E-22
        -1.747931E-23   -3.784075E-25   -5.450443E-27   -4.427219E-29    5.173735E-32    7.336694E-33    1.186275E-34    1.163304E-36    7.895906E-39    3.746011E-41
         1.172675E-43
  30     1.642950E-46    1.085780E-43    3.690219E-41    7.940491E-39    1.158373E-36    1.130662E-34    6.226323E-33   -4.670391E-32   -4.500350E-29   -4.595583E-27
        -2.678401E-25   -9.855599E-24   -2.255540E-22   -3.528573E-21   -3.918479E-20   -3.563598E-19   -3.918619E-20   -3.529249E-21   -2.257169E-22   -9.878225E-24
        -2.695349E-25   -4.667461E-27   -4.687223E-29   -7.800884E-32    5.884314E-33    1.107857E-34    1.152538E-36    7.986369E-39    3.746011E-41    1.111742E-43
         1.696435E-46
  31      0.00000        1.642894E-46    1.145185E-43    3.889741E-41    8.166138E-39    1.129731E-36    9.954224E-35    4.142945E-33   -2.023620E-31   -4.616376E-29
        -3.589919E-27   -1.567180E-25   -3.925293E-24   -6.934202E-23   -8.861293E-22   -9.618194E-21   -8.861650E-22   -6.935902E-23   -3.929001E-24   -1.571720E-25
        -3.619092E-27   -4.720428E-29   -2.243613E-31    3.859516E-33    9.740476E-35    1.123619E-36    8.212377E-39    3.948678E-41    1.172675E-43    1.696435E-46
          0.00000    

 CONCENTRATION WILL BE SAVED ON UNIT 1030 AT END OF TIME STEP   31, STRESS PERIOD    1


  MASS BUDGET FOR ENTIRE MODEL AT END OF TIME STEP   31, STRESS PERIOD   1
  ---------------------------------------------------------------------------------------------------

     CUMULATIVE MASS      M       RATES FOR THIS TIME STEP      M/T          PACKAGE NAME    
     ------------------                 ------------------------                     ----------------

           IN:                                      IN:
           ---                                      ---
     STORAGE-AQUEOUS =       4.9153E-03       STORAGE-AQUEOUS =       1.0040E-06     MST                              
                 WEL =  6789000000.0000                   WEL =     8640000.0000     SSM_WEL-1                        
                 CHD =           0.0000                   CHD =           0.0000     SSM_CHD-1                        

            TOTAL IN =  6789000000.0049              TOTAL IN =     8640000.0000

          OUT:                                     OUT:
          ----                                     ----
     STORAGE-AQUEOUS =  6789000000.0049       STORAGE-AQUEOUS =     8640000.0000     MST                              
                 WEL =           0.0000                   WEL =           0.0000     SSM_WEL-1                        
                 CHD =       7.5562E-18                   CHD =       2.3641E-29     SSM_CHD-1                        

           TOTAL OUT =  6789000000.0049             TOTAL OUT =     8640000.0000

            IN - OUT =      -4.7684E-06              IN - OUT =      -1.9930E-07

 PERCENT DISCREPANCY =          -0.00     PERCENT DISCREPANCY =          -0.00




         TIME SUMMARY AT END OF TIME STEP   31 IN STRESS PERIOD    1
                    SECONDS     MINUTES      HOURS       DAYS        YEARS
                    -----------------------------------------------------------
   TIME STEP LENGTH 2.19000E+06  36500.      608.33      25.347     6.93969E-02
 STRESS PERIOD TIME 6.78900E+07 1.13150E+06  18858.      785.76      2.1513    
         TOTAL TIME 6.78900E+07 1.13150E+06  18858.      785.76      2.1513    


end timestep


start timestep kper="1" kstp="32" mode="normal"

 UBDSV1 SAVING  STORAGE-AQUEOUS ON UNIT   1029 AT TIME STEP     32, STRESS PERIOD      1
 UBDSV1 SAVING     FLOW-JA-FACE ON UNIT   1029 AT TIME STEP     32, STRESS PERIOD      1
 UBDSV06 SAVING  SOURCE-SINK MIX IN MODEL GWT_P06-MF6      PACKAGE GWT_P06-MF6     CONNECTED TO MODEL GWT_P06-MF6      PACKAGE SSM              ON UNIT   1029 AT TIME STEP     32, STRESS PERIOD      1
1
  CONCENTRATION IN LAYER   1 AT END OF TIME STEP  32 IN STRESS PERIOD    1
  ---------------------------------------------------------------------------

                1               2               3               4               5               6               7               8               9              10
               11              12              13              14              15              16              17              18              19              20
               21              22              23              24              25              26              27              28              29              30
               31
 ................................................................................................................................................................................................................................................................................................................................................................................................................................................................................................................
   1      0.00000        2.742046E-46    1.833560E-43    5.932097E-41    1.171879E-38    1.486936E-36    1.111303E-34    1.857594E-33   -6.275225E-31   -8.403882E-29
        -5.710425E-27   -2.336784E-25   -5.700604E-24   -9.707687E-23   -1.187325E-21   -1.214954E-20   -1.187284E-21   -9.705906E-23   -5.696913E-24   -2.332167E-25
        -5.678596E-27   -8.279803E-29   -5.985504E-31    2.276216E-33    1.148772E-34    1.504647E-36    1.171616E-38    5.873813E-41    1.799746E-43    2.669205E-46
          0.00000    
   2     2.742046E-46    1.738328E-43    5.629180E-41    1.141076E-38    1.532996E-36    1.295923E-34    4.354818E-33   -4.872578E-31   -9.025292E-29   -7.570755E-27
        -4.014052E-25   -1.394017E-23   -3.088356E-22   -4.680090E-21   -4.977858E-20   -4.258520E-19   -4.977703E-20   -4.679402E-21   -3.086779E-22   -1.391785E-23
        -3.996195E-25   -7.488447E-27   -8.791539E-29   -4.442215E-31    4.880213E-33    1.337357E-34    1.550820E-36    1.140599E-38    5.573020E-41    1.706108E-43
         2.669128E-46
   3     1.833560E-43    5.629180E-41    1.128614E-38    1.550875E-36    1.404233E-34    6.145919E-33   -3.610186E-31   -9.327740E-29   -9.141565E-27   -5.718953E-25
        -2.464592E-23   -7.300158E-22   -1.444686E-20   -1.953583E-19   -1.773719E-18   -1.196175E-17   -1.773673E-18   -1.953354E-19   -1.444098E-20   -7.290621E-22
        -2.455692E-23   -5.670841E-25   -8.979080E-27   -8.963272E-29   -3.046214E-31    6.753792E-33    1.448227E-34    1.568772E-36    1.128049E-38    5.572564E-41
         1.799441E-43
   4     5.932097E-41    1.141076E-38    1.550875E-36    1.439431E-34    7.075153E-33   -2.733717E-31   -9.423912E-29   -1.033356E-26   -7.250910E-25   -3.588199E-23
        -1.272227E-21   -3.179638E-20   -5.468077E-19   -6.722736E-18   -5.040607E-17   -3.976639E-16   -5.040510E-17   -6.722132E-18   -5.466323E-19   -3.176258E-20
        -1.268468E-21   -3.564201E-23   -7.155262E-25   -1.007747E-26   -8.940138E-29   -2.071788E-31    7.731373E-33    1.484607E-34    1.568915E-36    1.140534E-38
         5.872354E-41
   5     1.171879E-38    1.532996E-36    1.404233E-34    7.075153E-33   -2.421209E-31   -9.439904E-29   -1.109062E-26   -8.434695E-25   -4.599918E-23   -1.836370E-21
        -5.319612E-20   -1.086821E-18   -1.505832E-17   -1.850155E-16   -2.298448E-15   -1.023331E-14   -2.298408E-15   -1.850041E-16   -1.505480E-17   -1.085905E-18
        -5.306682E-20   -1.826463E-21   -4.553091E-23   -8.286415E-25   -1.075589E-26   -8.880260E-29   -1.716237E-31    7.740688E-33    1.449250E-34    1.551259E-36
         1.171486E-38
   6     1.486936E-36    1.295923E-34    6.145919E-33   -2.733717E-31   -9.439904E-29   -1.135155E-26   -9.087018E-25   -5.316107E-23   -2.314413E-21   -7.436543E-20
        -1.716514E-18   -2.692391E-17   -5.261561E-16   -7.665590E-15   -6.229687E-14   -1.995983E-13   -6.229619E-14   -7.665246E-15   -5.260835E-16   -2.690788E-17
        -1.713181E-18   -7.404003E-20   -2.295945E-21   -5.246673E-23   -8.901579E-25   -1.098099E-26   -8.869362E-29   -2.049241E-31    6.780476E-33    1.339358E-34
         1.505411E-36
   7     1.111303E-34    4.354818E-33   -3.610186E-31   -9.423912E-29   -1.109062E-26   -9.087018E-25   -5.576423E-23   -2.592342E-21   -9.029604E-20   -2.299579E-18
        -4.107664E-17   -1.084718E-15   -2.071194E-14   -1.921791E-13   -1.122876E-12    5.011229E-14   -1.122873E-12   -1.921755E-13   -2.071118E-14   -1.084455E-15
        -4.102139E-17   -2.291772E-18   -8.973295E-20   -2.566978E-21   -5.495972E-23   -8.896849E-25   -1.074069E-26   -8.910912E-29   -3.006227E-31    4.920525E-33
         1.151645E-34
   8     1.857594E-33   -4.872578E-31   -9.327740E-29   -1.033356E-26   -8.434695E-25   -5.316107E-23   -2.592342E-21   -9.627220E-20   -2.659621E-18   -5.328523E-17
        -1.709340E-15   -3.956643E-14   -4.288274E-13   -2.614642E-12    3.806258E-11    6.352355E-10    3.806230E-11   -2.614667E-12   -4.288136E-13   -3.957100E-14
        -1.708545E-15   -5.316281E-17   -2.647472E-18   -9.558170E-20   -2.566143E-21   -5.242576E-23   -8.274667E-25   -1.005326E-26   -8.924789E-29   -4.393819E-31
         2.324224E-33
   9    -6.275225E-31   -9.025292E-29   -9.141565E-27   -7.250910E-25   -4.599918E-23   -2.314413E-21   -9.029604E-20   -2.659621E-18   -5.819530E-17   -2.135677E-15
        -5.674410E-14   -7.313962E-13   -3.177913E-12    2.391785E-10    8.236912E-09    1.369464E-07    8.236914E-09    2.391768E-10   -3.177854E-12   -7.313669E-13
        -5.675572E-14   -2.134256E-15   -5.802968E-17   -2.646945E-18   -8.968992E-20   -2.294060E-21   -4.547361E-23   -7.142081E-25   -8.954836E-27   -8.754857E-29
        -5.938920E-31
  10    -8.403882E-29   -7.570755E-27   -5.718953E-25   -3.588199E-23   -1.836370E-21   -7.436543E-20   -2.299579E-18   -5.328523E-17   -2.135677E-15   -6.373358E-14
        -9.501945E-13   -1.830861E-12    7.405408E-10    4.356897E-08    1.657326E-06    2.801895E-05    1.657326E-06    4.356899E-08    7.405333E-10   -1.829746E-12
        -9.501830E-13   -6.375071E-14   -2.134182E-15   -5.315015E-17   -2.290734E-18   -7.398908E-20   -1.824728E-21   -3.559635E-23   -5.661130E-25   -7.471137E-27
        -8.253028E-29
  11    -5.710425E-27   -4.014052E-25   -2.464592E-23   -1.272227E-21   -5.319612E-20   -1.716514E-18   -4.107664E-17   -1.709340E-15   -5.674410E-14   -9.501945E-13
        -7.332285E-13    1.284758E-09    1.122235E-07    7.058599E-06    2.619472E-04    4.229079E-03    2.619472E-04    7.058599E-06    1.122235E-07    1.284735E-09
        -7.307200E-13   -9.501890E-13   -5.675853E-14   -1.708430E-15   -4.101041E-17   -1.712453E-18   -5.303654E-20   -1.267538E-21   -2.453384E-23   -3.991397E-25
        -5.669810E-27
  12    -2.336784E-25   -1.394017E-23   -7.300158E-22   -3.179638E-20   -1.086821E-18   -2.692391E-17   -1.084718E-15   -3.956643E-14   -7.313962E-13   -1.830861E-12
         1.284758E-09    1.520595E-07    1.390807E-05    8.264133E-04    2.799064E-02    0.385055        2.799064E-02    8.264133E-04    1.390807E-05    1.520596E-07
         1.284733E-09   -1.829370E-12   -7.313686E-13   -3.957314E-14   -1.084399E-15   -2.690362E-17   -1.085648E-18   -3.175268E-20   -7.287717E-22   -1.391082E-23
        -2.330667E-25
  13    -5.700604E-24   -3.088356E-22   -1.444686E-20   -5.468077E-19   -1.505832E-17   -5.261561E-16   -2.071194E-14   -4.288274E-13   -3.177913E-12    7.405408E-10
         1.122235E-07    1.390807E-05    1.170187E-03    6.017019E-02     1.46840         11.0216         1.46840        6.017019E-02    1.170187E-03    1.390807E-05
         1.122236E-07    7.405315E-10   -3.177752E-12   -4.288128E-13   -2.071127E-14   -5.260670E-16   -1.505386E-17   -5.465832E-19   -1.443925E-20   -3.086295E-22
        -5.695733E-24
  14    -9.707687E-23   -4.680090E-21   -1.953583E-19   -6.722736E-18   -1.850155E-16   -7.665590E-15   -1.921791E-13   -2.614642E-12    2.391785E-10    4.356897E-08
         7.058599E-06    8.264133E-04    6.017019E-02     2.02128         20.9176         60.0956         20.9176         2.02128        6.017019E-02    8.264133E-04
         7.058599E-06    4.356899E-08    2.391764E-10   -2.614667E-12   -1.921751E-13   -7.665202E-15   -1.850020E-16   -6.722010E-18   -1.953305E-19   -4.679251E-21
        -9.705495E-23
  15    -1.187325E-21   -4.977858E-20   -1.773719E-18   -5.040607E-17   -2.298448E-15   -6.229687E-14   -1.122876E-12    3.806258E-11    8.236912E-09    1.657326E-06
         2.619472E-04    2.799064E-02     1.46840         20.9176         70.2000         95.3159         70.2000         20.9176         1.46840        2.799064E-02
         2.619472E-04    1.657326E-06    8.236915E-09    3.806224E-11   -1.122873E-12   -6.229609E-14   -2.298403E-15   -5.040498E-17   -1.773668E-18   -4.977686E-20
        -1.187280E-21
  16    -1.214954E-20   -4.258520E-19   -1.196175E-17   -3.976639E-16   -1.023331E-14   -1.995983E-13    5.011229E-14    6.352355E-10    1.369464E-07    2.801895E-05
         4.229079E-03    0.385055         11.0216         60.0956         95.3159         99.9971         95.3159         60.0956         11.0216        0.385055    
         4.229079E-03    2.801895E-05    1.369464E-07    6.352355E-10    5.011254E-14   -1.995982E-13   -1.023331E-14   -3.976640E-16   -1.196175E-17   -4.258520E-19
        -1.214954E-20
  17    -1.187284E-21   -4.977703E-20   -1.773673E-18   -5.040510E-17   -2.298408E-15   -6.229619E-14   -1.122873E-12    3.806230E-11    8.236914E-09    1.657326E-06
         2.619472E-04    2.799064E-02     1.46840         20.9176         70.2000         95.3159         70.2000         20.9176         1.46840        2.799064E-02
         2.619472E-04    1.657326E-06    8.236912E-09    3.806258E-11   -1.122876E-12   -6.229687E-14   -2.298448E-15   -5.040607E-17   -1.773719E-18   -4.977858E-20
        -1.187325E-21
  18    -9.705906E-23   -4.679402E-21   -1.953354E-19   -6.722132E-18   -1.850041E-16   -7.665246E-15   -1.921755E-13   -2.614667E-12    2.391768E-10    4.356899E-08
         7.058599E-06    8.264133E-04    6.017019E-02     2.02128         20.9176         60.0956         20.9176         2.02128        6.017019E-02    8.264133E-04
         7.058599E-06    4.356897E-08    2.391785E-10   -2.614642E-12   -1.921791E-13   -7.665590E-15   -1.850155E-16   -6.722736E-18   -1.953583E-19   -4.680090E-21
        -9.707687E-23
  19    -5.696913E-24   -3.086779E-22   -1.444098E-20   -5.466323E-19   -1.505480E-17   -5.260835E-16   -2.071118E-14   -4.288136E-13   -3.177854E-12    7.405333E-10
         1.122235E-07    1.390807E-05    1.170187E-03    6.017019E-02     1.46840         11.0216         1.46840        6.017019E-02    1.170187E-03    1.390807E-05
         1.122235E-07    7.405408E-10   -3.177913E-12   -4.288274E-13   -2.071194E-14   -5.261561E-16   -1.505832E-17   -5.468077E-19   -1.444686E-20   -3.088356E-22
        -5.700604E-24
  20    -2.332167E-25   -1.391785E-23   -7.290621E-22   -3.176258E-20   -1.085905E-18   -2.690788E-17   -1.084455E-15   -3.957100E-14   -7.313669E-13   -1.829746E-12
         1.284735E-09    1.520596E-07    1.390807E-05    8.264133E-04    2.799064E-02    0.385055        2.799064E-02    8.264133E-04    1.390807E-05    1.520595E-07
         1.284758E-09   -1.830861E-12   -7.313962E-13   -3.956643E-14   -1.084718E-15   -2.692391E-17   -1.086821E-18   -3.179638E-20   -7.300158E-22   -1.394017E-23
        -2.336784E-25
  21    -5.678596E-27   -3.996195E-25   -2.455692E-23   -1.268468E-21   -5.306682E-20   -1.713181E-18   -4.102139E-17   -1.708545E-15   -5.675572E-14   -9.501830E-13
        -7.307200E-13    1.284733E-09    1.122236E-07    7.058599E-06    2.619472E-04    4.229079E-03    2.619472E-04    7.058599E-06    1.122235E-07    1.284758E-09
        -7.332286E-13   -9.501945E-13   -5.674410E-14   -1.709340E-15   -4.107664E-17   -1.716514E-18   -5.319612E-20   -1.272227E-21   -2.464592E-23   -4.014052E-25
        -5.710425E-27
  22    -8.279803E-29   -7.488447E-27   -5.670841E-25   -3.564201E-23   -1.826463E-21   -7.404003E-20   -2.291772E-18   -5.316281E-17   -2.134256E-15   -6.375071E-14
        -9.501890E-13   -1.829370E-12    7.405315E-10    4.356899E-08    1.657326E-06    2.801895E-05    1.657326E-06    4.356897E-08    7.405408E-10   -1.830861E-12
        -9.501945E-13   -6.373358E-14   -2.135677E-15   -5.328523E-17   -2.299579E-18   -7.436543E-20   -1.836370E-21   -3.588199E-23   -5.718953E-25   -7.570755E-27
        -8.403882E-29
  23    -5.985504E-31   -8.791539E-29   -8.979080E-27   -7.155262E-25   -4.553091E-23   -2.295945E-21   -8.973295E-20   -2.647472E-18   -5.802968E-17   -2.134182E-15
        -5.675853E-14   -7.313686E-13   -3.177752E-12    2.391764E-10    8.236915E-09    1.369464E-07    8.236912E-09    2.391785E-10   -3.177913E-12   -7.313962E-13
        -5.674410E-14   -2.135677E-15   -5.819530E-17   -2.659621E-18   -9.029604E-20   -2.314413E-21   -4.599918E-23   -7.250910E-25   -9.141565E-27   -9.025292E-29
        -6.275225E-31
  24     2.276216E-33   -4.442215E-31   -8.963272E-29   -1.007747E-26   -8.286415E-25   -5.246673E-23   -2.566978E-21   -9.558170E-20   -2.646945E-18   -5.315015E-17
        -1.708430E-15   -3.957314E-14   -4.288128E-13   -2.614667E-12    3.806224E-11    6.352355E-10    3.806258E-11   -2.614642E-12   -4.288274E-13   -3.956643E-14
        -1.709340E-15   -5.328523E-17   -2.659621E-18   -9.627220E-20   -2.592342E-21   -5.316107E-23   -8.434695E-25   -1.033356E-26   -9.327740E-29   -4.872578E-31
         1.857594E-33
  25     1.148772E-34    4.880213E-33   -3.046214E-31   -8.940138E-29   -1.075589E-26   -8.901579E-25   -5.495972E-23   -2.566143E-21   -8.968992E-20   -2.290734E-18
        -4.101041E-17   -1.084399E-15   -2.071127E-14   -1.921751E-13   -1.122873E-12    5.011254E-14   -1.122876E-12   -1.921791E-13   -2.071194E-14   -1.084718E-15
        -4.107664E-17   -2.299579E-18   -9.029604E-20   -2.592342E-21   -5.576423E-23   -9.087018E-25   -1.109062E-26   -9.423912E-29   -3.610186E-31    4.354818E-33
         1.111303E-34
  26     1.504647E-36    1.337357E-34    6.753792E-33   -2.071788E-31   -8.880260E-29   -1.098099E-26   -8.896849E-25   -5.242576E-23   -2.294060E-21   -7.398908E-20
        -1.712453E-18   -2.690362E-17   -5.260670E-16   -7.665202E-15   -6.229609E-14   -1.995982E-13   -6.229687E-14   -7.665590E-15   -5.261561E-16   -2.692391E-17
        -1.716514E-18   -7.436543E-20   -2.314413E-21   -5.316107E-23   -9.087018E-25   -1.135155E-26   -9.439904E-29   -2.733716E-31    6.145920E-33    1.295923E-34
         1.486936E-36
  27     1.171616E-38    1.550820E-36    1.448227E-34    7.731373E-33   -1.716237E-31   -8.869362E-29   -1.074069E-26   -8.274667E-25   -4.547361E-23   -1.824728E-21
        -5.303654E-20   -1.085648E-18   -1.505386E-17   -1.850020E-16   -2.298403E-15   -1.023331E-14   -2.298448E-15   -1.850155E-16   -1.505832E-17   -1.086821E-18
        -5.319612E-20   -1.836370E-21   -4.599918E-23   -8.434695E-25   -1.109062E-26   -9.439904E-29   -2.421208E-31    7.075153E-33    1.404233E-34    1.532996E-36
         1.171879E-38
  28     5.873813E-41    1.140599E-38    1.568772E-36    1.484607E-34    7.740688E-33   -2.049241E-31   -8.910912E-29   -1.005326E-26   -7.142081E-25   -3.559635E-23
        -1.267538E-21   -3.175268E-20   -5.465832E-19   -6.722010E-18   -5.040498E-17   -3.976640E-16   -5.040607E-17   -6.722736E-18   -5.468077E-19   -3.179638E-20
        -1.272227E-21   -3.588199E-23   -7.250910E-25   -1.033356E-26   -9.423912E-29   -2.733716E-31    7.075153E-33    1.439431E-34    1.550875E-36    1.141076E-38
         5.932097E-41
  29     1.799746E-43    5.573020E-41    1.128049E-38    1.568915E-36    1.449250E-34    6.780476E-33   -3.006227E-31   -8.924789E-29   -8.954836E-27   -5.661130E-25
        -2.453384E-23   -7.287717E-22   -1.443925E-20   -1.953305E-19   -1.773668E-18   -1.196175E-17   -1.773719E-18   -1.953583E-19   -1.444686E-20   -7.300158E-22
        -2.464592E-23   -5.718953E-25   -9.141565E-27   -9.327740E-29   -3.610186E-31    6.145920E-33    1.404233E-34    1.550875E-36    1.128614E-38    5.629180E-41
         1.833560E-43
  30     2.669205E-46    1.706108E-43    5.572564E-41    1.140534E-38    1.551259E-36    1.339358E-34    4.920525E-33   -4.393819E-31   -8.754857E-29   -7.471137E-27
        -3.991397E-25   -1.391082E-23   -3.086295E-22   -4.679251E-21   -4.977686E-20   -4.258520E-19   -4.977858E-20   -4.680090E-21   -3.088356E-22   -1.394017E-23
        -4.014052E-25   -7.570755E-27   -9.025292E-29   -4.872578E-31    4.354818E-33    1.295923E-34    1.532996E-36    1.141076E-38    5.629180E-41    1.738328E-43
         2.742046E-46
  31      0.00000        2.669128E-46    1.799441E-43    5.872354E-41    1.171486E-38    1.505411E-36    1.151645E-34    2.324224E-33   -5.938920E-31   -8.253028E-29
        -5.669810E-27   -2.330667E-25   -5.695733E-24   -9.705495E-23   -1.187280E-21   -1.214954E-20   -1.187325E-21   -9.707687E-23   -5.700604E-24   -2.336784E-25
        -5.710425E-27   -8.403882E-29   -6.275225E-31    1.857594E-33    1.111303E-34    1.486936E-36    1.171879E-38    5.932097E-41    1.833560E-43    2.742046E-46
          0.00000    

 CONCENTRATION WILL BE SAVED ON UNIT 1030 AT END OF TIME STEP   32, STRESS PERIOD    1


  MASS BUDGET FOR ENTIRE MODEL AT END OF TIME STEP   32, STRESS PERIOD   1
  ---------------------------------------------------------------------------------------------------

     CUMULATIVE MASS      M       RATES FOR THIS TIME STEP      M/T          PACKAGE NAME    
     ------------------                 ------------------------                     ----------------

           IN:                                      IN:
           ---                                      ---
     STORAGE-AQUEOUS =       4.9396E-03       STORAGE-AQUEOUS =       9.6037E-07     MST                              
                 WEL =  7008000000.0000                   WEL =     8640000.0000     SSM_WEL-1                        
                 CHD =           0.0000                   CHD =           0.0000     SSM_CHD-1                        

            TOTAL IN =  7008000000.0049              TOTAL IN =     8640000.0000

          OUT:                                     OUT:
          ----                                     ----
     STORAGE-AQUEOUS =  7008000000.0049       STORAGE-AQUEOUS =     8640000.0000     MST                              
                 WEL =           0.0000                   WEL =           0.0000     SSM_WEL-1                        
                 CHD =       7.5562E-18                   CHD =       1.2618E-29     SSM_CHD-1                        

           TOTAL OUT =  7008000000.0049             TOTAL OUT =     8640000.0000

            IN - OUT =      -9.5367E-06              IN - OUT =      -1.9558E-07

 PERCENT DISCREPANCY =          -0.00     PERCENT DISCREPANCY =          -0.00




         TIME SUMMARY AT END OF TIME STEP   32 IN STRESS PERIOD    1
                    SECONDS     MINUTES      HOURS       DAYS        YEARS
                    -----------------------------------------------------------
   TIME STEP LENGTH 2.19000E+06  36500.      608.33      25.347     6.93969E-02
 STRESS PERIOD TIME 7.00800E+07 1.16800E+06  19467.      811.11      2.2207    
         TOTAL TIME 7.00800E+07 1.16800E+06  19467.      811.11      2.2207    


end timestep


start timestep kper="1" kstp="33" mode="normal"

 UBDSV1 SAVING  STORAGE-AQUEOUS ON UNIT   1029 AT TIME STEP     33, STRESS PERIOD      1
 UBDSV1 SAVING     FLOW-JA-FACE ON UNIT   1029 AT TIME STEP     33, STRESS PERIOD      1
 UBDSV06 SAVING  SOURCE-SINK MIX IN MODEL GWT_P06-MF6      PACKAGE GWT_P06-MF6     CONNECTED TO MODEL GWT_P06-MF6      PACKAGE SSM              ON UNIT   1029 AT TIME STEP     33, STRESS PERIOD      1
1
  CONCENTRATION IN LAYER   1 AT END OF TIME STEP  33 IN STRESS PERIOD    1
  ---------------------------------------------------------------------------

                1               2               3               4               5               6               7               8               9              10
               11              12              13              14              15              16              17              18              19              20
               21              22              23              24              25              26              27              28              29              30
               31
 ................................................................................................................................................................................................................................................................................................................................................................................................................................................................................................................
   1      0.00000        4.338223E-46    2.799110E-43    8.665509E-41    1.613112E-38    1.859662E-36    1.091067E-34   -3.101277E-33   -1.335729E-30   -1.414808E-28
        -8.749240E-27   -3.396062E-25   -8.078551E-24   -1.333041E-22   -1.564828E-21   -1.512670E-20   -1.564776E-21   -1.332813E-22   -8.073745E-24   -3.389907E-25
        -8.705502E-27   -1.397124E-28   -1.292502E-30   -2.435760E-33    1.156432E-34    1.897971E-36    1.621838E-38    8.621831E-41    2.760364E-43    4.243203E-46
          0.00000    
   2     4.338223E-46    2.653803E-43    8.225788E-41    1.573353E-38    1.931982E-36    1.338815E-34   -1.884052E-34   -1.236605E-30   -1.592567E-28   -1.182563E-26
        -5.833895E-25   -1.928670E-23   -4.143563E-22   -6.117424E-21   -6.242914E-20   -5.010706E-19   -6.242727E-20   -6.116575E-21   -4.141586E-22   -1.925803E-23
        -5.810283E-25   -1.171308E-26   -1.559332E-28   -1.172415E-30    6.465421E-34    1.411480E-34    1.971007E-36    1.581640E-38    8.183406E-41    2.616871E-43
         4.243101E-46
   3     2.799110E-43    8.225788E-41    1.557013E-38    1.961192E-36    1.484302E-34    1.892135E-33   -1.144130E-30   -1.726291E-28   -1.460706E-26   -8.400374E-25
        -3.404366E-23   -9.609457E-22   -1.834601E-20   -2.443145E-19   -2.122984E-18   -1.299757E-17   -2.122930E-18   -2.442870E-19   -1.833891E-20   -9.597664E-22
        -3.393025E-23   -8.337054E-25   -1.438548E-26   -1.674516E-28   -1.059961E-30    2.859894E-33    1.561699E-34    2.000631E-36    1.565159E-38    8.182987E-41
         2.759999E-43
   4     8.665509E-41    1.573353E-38    1.961192E-36    1.531698E-34    2.973068E-33   -1.077045E-30   -1.812432E-28   -1.683301E-26   -1.077297E-24   -4.982518E-23
        -1.669898E-21   -3.972666E-20   -6.534605E-19   -8.094129E-18   -5.741832E-17   -4.483706E-16   -5.741721E-17   -8.093423E-18   -6.532587E-19   -3.968642E-20
        -1.665280E-21   -4.952069E-23   -1.064747E-24   -1.648439E-26   -1.743745E-28   -9.782238E-31    4.018713E-33    1.611267E-34    2.000983E-36    1.581701E-38
         8.620492E-41
   5     1.613112E-38    1.931982E-36    1.484302E-34    2.973068E-33   -1.052708E-30   -1.854973E-28   -1.829533E-26   -1.264056E-24   -6.424301E-23   -2.417044E-21
        -6.636661E-20   -1.288198E-18   -1.686732E-17   -2.181287E-16   -2.583490E-15   -1.180710E-14   -2.583445E-15   -2.181156E-16   -1.686348E-17   -1.287150E-18
        -6.621363E-20   -2.404913E-21   -6.365047E-23   -1.244637E-24   -1.784008E-26   -1.775535E-28   -9.474513E-31    4.033621E-33    1.563537E-34    1.972079E-36
         1.621973E-38
   6     1.859662E-36    1.338815E-34    1.892135E-33   -1.077045E-30   -1.854973E-28   -1.880750E-26   -1.367988E-24   -7.453702E-23   -3.056292E-21   -9.307800E-20
        -2.045342E-18   -3.067015E-17   -6.151427E-16   -9.247067E-15   -7.118590E-14   -2.360480E-13   -7.118511E-14   -9.246677E-15   -6.150602E-16   -3.065246E-17
        -2.041554E-18   -9.269378E-20   -3.033724E-21   -7.365985E-23   -1.343725E-24   -1.830371E-26   -1.773995E-28   -9.748636E-31    2.902551E-33    1.415062E-34
         1.899803E-36
   7     1.091067E-34   -1.884052E-34   -1.144130E-30   -1.812432E-28   -1.829533E-26   -1.367988E-24   -7.829280E-23   -3.429897E-21   -1.133645E-19   -2.758008E-18
        -4.753539E-17   -1.267524E-15   -2.473684E-14   -2.161751E-13   -1.221546E-12    8.534802E-13   -1.221544E-12   -2.161709E-13   -2.473591E-14   -1.267242E-15
        -4.747292E-17   -2.749109E-18   -1.127000E-19   -3.398932E-21   -7.727707E-23   -1.343110E-24   -1.781954E-26   -1.739616E-28   -1.054007E-30    7.108139E-34
         1.161536E-34
   8    -3.101277E-33   -1.236605E-30   -1.726291E-28   -1.683301E-26   -1.264056E-24   -7.453702E-23   -3.429897E-21   -1.210067E-19   -3.201634E-18   -6.217411E-17
        -2.001162E-15   -4.708717E-14   -5.021678E-13   -2.545013E-12    5.171392E-11    8.210074E-10    5.171361E-11   -2.545049E-12   -5.021523E-13   -4.709141E-14
        -2.000339E-15   -6.203541E-17   -3.187766E-18   -1.201920E-19   -3.397917E-21   -7.360839E-23   -1.243109E-24   -1.645164E-26   -1.669078E-28   -1.165217E-30
        -2.359270E-33
   9    -1.335729E-30   -1.592567E-28   -1.460706E-26   -1.077297E-24   -6.424301E-23   -3.056292E-21   -1.133645E-19   -3.201634E-18   -6.807216E-17   -2.503369E-15
        -6.752133E-14   -8.548600E-13   -2.169367E-12    3.205913E-10    1.089736E-08    1.784316E-07    1.089737E-08    3.205895E-10   -2.169357E-12   -8.548237E-13
        -6.753327E-14   -2.501914E-15   -6.788464E-17   -3.187167E-18   -1.126494E-19   -3.031431E-21   -6.357840E-23   -1.063029E-24   -1.435264E-26   -1.554146E-28
        -1.285575E-30
  10    -1.414808E-28   -1.182563E-26   -8.400374E-25   -4.982518E-23   -2.417044E-21   -9.307800E-20   -2.758008E-18   -6.217411E-17   -2.503369E-15   -7.585145E-14
        -1.102605E-12    7.192700E-13    9.955144E-10    5.799263E-08    2.161665E-06    3.555989E-05    2.161665E-06    5.799265E-08    9.955070E-10    7.202673E-13
        -1.102575E-12   -7.586969E-14   -2.501840E-15   -6.202101E-17   -2.747930E-18   -9.263385E-20   -2.402799E-21   -4.946311E-23   -8.324361E-25   -1.168958E-26
        -1.393331E-28
  11    -8.749240E-27   -5.833895E-25   -3.404366E-23   -1.669898E-21   -6.636661E-20   -2.045342E-18   -4.753539E-17   -2.001162E-15   -6.752133E-14   -1.102605E-12
         2.644738E-12    1.731118E-09    1.496546E-07    9.206769E-06    3.328037E-04    5.215085E-03    3.328037E-04    9.206769E-06    1.496547E-07    1.731096E-09
         2.647089E-12   -1.102580E-12   -6.753633E-14   -2.000224E-15   -4.746047E-17   -2.040730E-18   -6.617793E-20   -1.664142E-21   -3.390103E-23   -5.803985E-25
        -8.693519E-27
  12    -3.396062E-25   -1.928670E-23   -9.609457E-22   -3.972666E-20   -1.288198E-18   -3.067015E-17   -1.267524E-15   -4.708717E-14   -8.548600E-13    7.192700E-13
         1.731118E-09    2.028484E-07    1.813563E-05    1.049040E-03    3.444685E-02    0.454379        3.444685E-02    1.049040E-03    1.813563E-05    2.028486E-07
         1.731093E-09    7.206402E-13   -8.548238E-13   -4.709364E-14   -1.267185E-15   -3.064777E-17   -1.286856E-18   -3.967468E-20   -9.594096E-22   -1.924906E-23
        -3.387925E-25
  13    -8.078551E-24   -4.143563E-22   -1.834601E-20   -6.534605E-19   -1.686732E-17   -6.151427E-16   -2.473684E-14   -5.021678E-13   -2.169367E-12    9.955144E-10
         1.496546E-07    1.813563E-05    1.484093E-03    7.380472E-02     1.71318         12.1071         1.71318        7.380472E-02    1.484093E-03    1.813563E-05
         1.496547E-07    9.955052E-10   -2.169259E-12   -5.021512E-13   -2.473600E-14   -6.150418E-16   -1.686247E-17   -6.532025E-19   -1.833684E-20   -4.140985E-22
        -8.072228E-24
  14    -1.333041E-22   -6.117424E-21   -2.443145E-19   -8.094129E-18   -2.181287E-16   -9.247067E-15   -2.161751E-13   -2.545013E-12    3.205913E-10    5.799263E-08
         9.206769E-06    1.049040E-03    7.380472E-02     2.34985         22.6987         62.0090         22.6987         2.34985        7.380472E-02    1.049040E-03
         9.206769E-06    5.799266E-08    3.205891E-10   -2.545050E-12   -2.161704E-13   -9.246626E-15   -2.181132E-16   -8.093282E-18   -2.442813E-19   -6.116390E-21
        -1.332761E-22
  15    -1.564828E-21   -6.242914E-20   -2.122984E-18   -5.741832E-17   -2.583490E-15   -7.118590E-14   -1.221546E-12    5.171392E-11    1.089736E-08    2.161665E-06
         3.328037E-04    3.444685E-02     1.71318         22.6987         72.0156         95.6654         72.0156         22.6987         1.71318        3.444685E-02
         3.328037E-04    2.161665E-06    1.089737E-08    5.171355E-11   -1.221543E-12   -7.118499E-14   -2.583439E-15   -5.741708E-17   -2.122924E-18   -6.242705E-20
        -1.564770E-21
  16    -1.512670E-20   -5.010706E-19   -1.299757E-17   -4.483706E-16   -1.180710E-14   -2.360480E-13    8.534802E-13    8.210074E-10    1.784316E-07    3.555989E-05
         5.215085E-03    0.454379         12.1071         62.0090         95.6654         99.9979         95.6654         62.0090         12.1071        0.454379    
         5.215085E-03    3.555989E-05    1.784316E-07    8.210074E-10    8.534805E-13   -2.360479E-13   -1.180710E-14   -4.483706E-16   -1.299757E-17   -5.010706E-19
        -1.512670E-20
  17    -1.564776E-21   -6.242727E-20   -2.122930E-18   -5.741721E-17   -2.583445E-15   -7.118511E-14   -1.221544E-12    5.171361E-11    1.089737E-08    2.161665E-06
         3.328037E-04    3.444685E-02     1.71318         22.6987         72.0156         95.6654         72.0156         22.6987         1.71318        3.444685E-02
         3.328037E-04    2.161665E-06    1.089736E-08    5.171392E-11   -1.221546E-12   -7.118590E-14   -2.583490E-15   -5.741832E-17   -2.122984E-18   -6.242914E-20
        -1.564828E-21
  18    -1.332813E-22   -6.116575E-21   -2.442870E-19   -8.093423E-18   -2.181156E-16   -9.246677E-15   -2.161709E-13   -2.545049E-12    3.205895E-10    5.799265E-08
         9.206769E-06    1.049040E-03    7.380472E-02     2.34985         22.6987         62.0090         22.6987         2.34985        7.380472E-02    1.049040E-03
         9.206769E-06    5.799263E-08    3.205913E-10   -2.545013E-12   -2.161751E-13   -9.247067E-15   -2.181287E-16   -8.094129E-18   -2.443145E-19   -6.117424E-21
        -1.333041E-22
  19    -8.073745E-24   -4.141586E-22   -1.833891E-20   -6.532587E-19   -1.686348E-17   -6.150602E-16   -2.473591E-14   -5.021523E-13   -2.169357E-12    9.955070E-10
         1.496547E-07    1.813563E-05    1.484093E-03    7.380472E-02     1.71318         12.1071         1.71318        7.380472E-02    1.484093E-03    1.813563E-05
         1.496546E-07    9.955144E-10   -2.169367E-12   -5.021678E-13   -2.473684E-14   -6.151427E-16   -1.686732E-17   -6.534605E-19   -1.834601E-20   -4.143563E-22
        -8.078551E-24
  20    -3.389907E-25   -1.925803E-23   -9.597664E-22   -3.968642E-20   -1.287150E-18   -3.065246E-17   -1.267242E-15   -4.709141E-14   -8.548237E-13    7.202673E-13
         1.731096E-09    2.028486E-07    1.813563E-05    1.049040E-03    3.444685E-02    0.454379        3.444685E-02    1.049040E-03    1.813563E-05    2.028484E-07
         1.731118E-09    7.192699E-13   -8.548600E-13   -4.708717E-14   -1.267524E-15   -3.067015E-17   -1.288198E-18   -3.972666E-20   -9.609457E-22   -1.928670E-23
        -3.396062E-25
  21    -8.705502E-27   -5.810283E-25   -3.393025E-23   -1.665280E-21   -6.621363E-20   -2.041554E-18   -4.747292E-17   -2.000339E-15   -6.753327E-14   -1.102575E-12
         2.647089E-12    1.731093E-09    1.496547E-07    9.206769E-06    3.328037E-04    5.215085E-03    3.328037E-04    9.206769E-06    1.496546E-07    1.731118E-09
         2.644738E-12   -1.102605E-12   -6.752133E-14   -2.001162E-15   -4.753539E-17   -2.045342E-18   -6.636661E-20   -1.669898E-21   -3.404366E-23   -5.833895E-25
        -8.749240E-27
  22    -1.397124E-28   -1.171308E-26   -8.337054E-25   -4.952069E-23   -2.404913E-21   -9.269378E-20   -2.749109E-18   -6.203541E-17   -2.501914E-15   -7.586969E-14
        -1.102580E-12    7.206402E-13    9.955052E-10    5.799266E-08    2.161665E-06    3.555989E-05    2.161665E-06    5.799263E-08    9.955144E-10    7.192699E-13
        -1.102605E-12   -7.585145E-14   -2.503369E-15   -6.217411E-17   -2.758008E-18   -9.307800E-20   -2.417044E-21   -4.982518E-23   -8.400374E-25   -1.182563E-26
        -1.414808E-28
  23    -1.292502E-30   -1.559332E-28   -1.438548E-26   -1.064747E-24   -6.365047E-23   -3.033724E-21   -1.127000E-19   -3.187766E-18   -6.788464E-17   -2.501840E-15
        -6.753633E-14   -8.548238E-13   -2.169259E-12    3.205891E-10    1.089737E-08    1.784316E-07    1.089736E-08    3.205913E-10   -2.169367E-12   -8.548600E-13
        -6.752133E-14   -2.503369E-15   -6.807216E-17   -3.201634E-18   -1.133645E-19   -3.056292E-21   -6.424301E-23   -1.077297E-24   -1.460706E-26   -1.592567E-28
        -1.335729E-30
  24    -2.435760E-33   -1.172415E-30   -1.674516E-28   -1.648439E-26   -1.244637E-24   -7.365985E-23   -3.398932E-21   -1.201920E-19   -3.187167E-18   -6.202101E-17
        -2.000224E-15   -4.709364E-14   -5.021512E-13   -2.545050E-12    5.171355E-11    8.210074E-10    5.171392E-11   -2.545013E-12   -5.021678E-13   -4.708717E-14
        -2.001162E-15   -6.217411E-17   -3.201634E-18   -1.210067E-19   -3.429897E-21   -7.453702E-23   -1.264056E-24   -1.683301E-26   -1.726291E-28   -1.236605E-30
        -3.101277E-33
  25     1.156432E-34    6.465421E-34   -1.059961E-30   -1.743745E-28   -1.784008E-26   -1.343725E-24   -7.727707E-23   -3.397917E-21   -1.126494E-19   -2.747930E-18
        -4.746047E-17   -1.267185E-15   -2.473600E-14   -2.161704E-13   -1.221543E-12    8.534805E-13   -1.221546E-12   -2.161751E-13   -2.473684E-14   -1.267524E-15
        -4.753539E-17   -2.758008E-18   -1.133645E-19   -3.429897E-21   -7.829280E-23   -1.367988E-24   -1.829533E-26   -1.812432E-28   -1.144130E-30   -1.884051E-34
         1.091067E-34
  26     1.897971E-36    1.411480E-34    2.859894E-33   -9.782238E-31   -1.775535E-28   -1.830371E-26   -1.343110E-24   -7.360839E-23   -3.031431E-21   -9.263385E-20
        -2.040730E-18   -3.064777E-17   -6.150418E-16   -9.246626E-15   -7.118499E-14   -2.360479E-13   -7.118590E-14   -9.247067E-15   -6.151427E-16   -3.067015E-17
        -2.045342E-18   -9.307800E-20   -3.056292E-21   -7.453702E-23   -1.367988E-24   -1.880750E-26   -1.854973E-28   -1.077045E-30    1.892135E-33    1.338815E-34
         1.859662E-36
  27     1.621838E-38    1.971007E-36    1.561699E-34    4.018713E-33   -9.474513E-31   -1.773995E-28   -1.781954E-26   -1.243109E-24   -6.357840E-23   -2.402799E-21
        -6.617793E-20   -1.286856E-18   -1.686247E-17   -2.181132E-16   -2.583439E-15   -1.180710E-14   -2.583490E-15   -2.181287E-16   -1.686732E-17   -1.288198E-18
        -6.636661E-20   -2.417044E-21   -6.424301E-23   -1.264056E-24   -1.829533E-26   -1.854973E-28   -1.052708E-30    2.973068E-33    1.484302E-34    1.931982E-36
         1.613112E-38
  28     8.621831E-41    1.581640E-38    2.000631E-36    1.611267E-34    4.033621E-33   -9.748636E-31   -1.739616E-28   -1.645164E-26   -1.063029E-24   -4.946311E-23
        -1.664142E-21   -3.967468E-20   -6.532025E-19   -8.093282E-18   -5.741708E-17   -4.483706E-16   -5.741832E-17   -8.094129E-18   -6.534605E-19   -3.972666E-20
        -1.669898E-21   -4.982518E-23   -1.077297E-24   -1.683301E-26   -1.812432E-28   -1.077045E-30    2.973068E-33    1.531699E-34    1.961192E-36    1.573353E-38
         8.665509E-41
  29     2.760364E-43    8.183406E-41    1.565159E-38    2.000983E-36    1.563537E-34    2.902551E-33   -1.054007E-30   -1.669078E-28   -1.435264E-26   -8.324361E-25
        -3.390103E-23   -9.594096E-22   -1.833684E-20   -2.442813E-19   -2.122924E-18   -1.299757E-17   -2.122984E-18   -2.443145E-19   -1.834601E-20   -9.609457E-22
        -3.404366E-23   -8.400374E-25   -1.460706E-26   -1.726291E-28   -1.144130E-30    1.892135E-33    1.484302E-34    1.961192E-36    1.557013E-38    8.225788E-41
         2.799110E-43
  30     4.243203E-46    2.616871E-43    8.182987E-41    1.581701E-38    1.972079E-36    1.415062E-34    7.108139E-34   -1.165217E-30   -1.554146E-28   -1.168958E-26
        -5.803985E-25   -1.924906E-23   -4.140985E-22   -6.116390E-21   -6.242705E-20   -5.010706E-19   -6.242914E-20   -6.117424E-21   -4.143563E-22   -1.928670E-23
        -5.833895E-25   -1.182563E-26   -1.592567E-28   -1.236605E-30   -1.884051E-34    1.338815E-34    1.931982E-36    1.573353E-38    8.225788E-41    2.653803E-43
         4.338223E-46
  31      0.00000        4.243101E-46    2.759999E-43    8.620492E-41    1.621973E-38    1.899803E-36    1.161536E-34   -2.359270E-33   -1.285575E-30   -1.393331E-28
        -8.693519E-27   -3.387925E-25   -8.072228E-24   -1.332761E-22   -1.564770E-21   -1.512670E-20   -1.564828E-21   -1.333041E-22   -8.078551E-24   -3.396062E-25
        -8.749240E-27   -1.414808E-28   -1.335729E-30   -3.101277E-33    1.091067E-34    1.859662E-36    1.613112E-38    8.665509E-41    2.799110E-43    4.338223E-46
          0.00000    

 CONCENTRATION WILL BE SAVED ON UNIT 1030 AT END OF TIME STEP   33, STRESS PERIOD    1


  MASS BUDGET FOR ENTIRE MODEL AT END OF TIME STEP   33, STRESS PERIOD   1
  ---------------------------------------------------------------------------------------------------

     CUMULATIVE MASS      M       RATES FOR THIS TIME STEP      M/T          PACKAGE NAME    
     ------------------                 ------------------------                     ----------------

           IN:                                      IN:
           ---                                      ---
     STORAGE-AQUEOUS =       4.9637E-03       STORAGE-AQUEOUS =       9.5032E-07     MST                              
                 WEL =  7227000000.0000                   WEL =     8640000.0000     SSM_WEL-1                        
                 CHD =           0.0000                   CHD =           0.0000     SSM_CHD-1                        

            TOTAL IN =  7227000000.0050              TOTAL IN =     8640000.0000

          OUT:                                     OUT:
          ----                                     ----
     STORAGE-AQUEOUS =  7227000000.0050       STORAGE-AQUEOUS =     8640000.0000     MST                              
                 WEL =           0.0000                   WEL =           0.0000     SSM_WEL-1                        
                 CHD =       7.5562E-18                   CHD =       5.7001E-31     SSM_CHD-1                        

           TOTAL OUT =  7227000000.0050             TOTAL OUT =     8640000.0000

            IN - OUT =      -1.3351E-05              IN - OUT =      -1.4901E-07

 PERCENT DISCREPANCY =          -0.00     PERCENT DISCREPANCY =          -0.00




         TIME SUMMARY AT END OF TIME STEP   33 IN STRESS PERIOD    1
                    SECONDS     MINUTES      HOURS       DAYS        YEARS
                    -----------------------------------------------------------
   TIME STEP LENGTH 2.19000E+06  36500.      608.33      25.347     6.93969E-02
 STRESS PERIOD TIME 7.22700E+07 1.20450E+06  20075.      836.46      2.2901    
         TOTAL TIME 7.22700E+07 1.20450E+06  20075.      836.46      2.2901    


end timestep


start timestep kper="1" kstp="34" mode="normal"

 UBDSV1 SAVING  STORAGE-AQUEOUS ON UNIT   1029 AT TIME STEP     34, STRESS PERIOD      1
 UBDSV1 SAVING     FLOW-JA-FACE ON UNIT   1029 AT TIME STEP     34, STRESS PERIOD      1
 UBDSV06 SAVING  SOURCE-SINK MIX IN MODEL GWT_P06-MF6      PACKAGE GWT_P06-MF6     CONNECTED TO MODEL GWT_P06-MF6      PACKAGE SSM              ON UNIT   1029 AT TIME STEP     34, STRESS PERIOD      1
1
  CONCENTRATION IN LAYER   1 AT END OF TIME STEP  34 IN STRESS PERIOD    1
  ---------------------------------------------------------------------------

                1               2               3               4               5               6               7               8               9              10
               11              12              13              14              15              16              17              18              19              20
               21              22              23              24              25              26              27              28              29              30
               31
 ................................................................................................................................................................................................................................................................................................................................................................................................................................................................................................................
   1      0.00000        6.714593E-46    4.167432E-43    1.227781E-40    2.128213E-38    2.148737E-36    7.360619E-35   -1.309269E-32   -2.511403E-30   -2.284007E-28
        -1.307236E-26   -4.836957E-25   -1.121601E-23   -1.800646E-22   -2.032647E-21   -1.858402E-20   -2.032581E-21   -1.800357E-22   -1.120982E-23   -4.828847E-25
        -1.301305E-26   -2.259204E-28   -2.448235E-30   -1.206667E-32    8.443899E-35    2.221253E-36    2.154020E-38    1.227782E-40    4.128643E-43    6.597371E-46
          0.00000    
   2     6.714593E-46    3.951224E-43    1.165978E-40    2.080631E-38    2.260822E-36    1.058783E-34   -9.942003E-33   -2.512710E-30   -2.651453E-28   -1.791593E-26
        -8.300755E-25   -2.621803E-23   -5.464387E-22   -7.897125E-21   -7.740787E-20   -5.821447E-19   -7.740562E-20   -7.896086E-21   -5.461930E-22   -2.618159E-23
        -8.269886E-25   -1.776404E-26   -2.604954E-28   -2.418973E-30   -8.655246E-33    1.179588E-34    2.335116E-36    2.105613E-38    1.165891E-40    3.914228E-43
         6.597242E-46
   3     4.167432E-43    1.165978E-40    2.060570E-38    2.307832E-36    1.248427E-34   -7.725718E-33   -2.505644E-30   -2.959178E-28   -2.249087E-26   -1.204680E-24
        -4.618812E-23   -1.246004E-21   -2.296803E-20   -3.029164E-19   -2.519343E-18   -1.406169E-17   -2.519281E-18   -3.028838E-19   -2.295954E-20   -1.244558E-21
        -4.604500E-23   -1.196437E-24   -2.219264E-26   -2.886818E-28   -2.382708E-30   -6.232626E-33    1.377341E-34    2.383135E-36    2.085329E-38    1.165868E-40
         4.128245E-43
   4     1.227781E-40    2.080631E-38    2.307832E-36    1.310406E-34   -6.571552E-33   -2.492639E-30   -3.175938E-28   -2.626618E-26   -1.558216E-24   -6.787555E-23
        -2.160103E-21   -4.905649E-20   -7.739855E-19   -9.705832E-18   -6.537896E-17   -4.945547E-16   -6.537772E-17   -9.705015E-18   -7.737545E-19   -4.900888E-20
        -2.154475E-21   -6.749278E-23   -1.541926E-24   -2.579774E-26   -3.080001E-28   -2.348288E-30   -4.957438E-33    1.443030E-34    2.383839E-36    2.105924E-38
         1.227709E-40
   5     2.128213E-38    2.260822E-36    1.248427E-34   -6.571552E-33   -2.486829E-30   -3.288907E-28   -2.879205E-26   -1.840158E-24   -8.792314E-23   -3.134787E-21
        -8.193454E-20   -1.517557E-18   -1.899560E-17   -2.569505E-16   -2.908055E-15   -1.368739E-14   -2.908007E-15   -2.569354E-16   -1.899140E-17   -1.516361E-18
        -8.175465E-20   -3.120049E-21   -8.718011E-23   -1.814996E-24   -2.818090E-26   -3.177989E-28   -2.333076E-30   -4.934385E-33    1.380439E-34    2.337252E-36
         2.154682E-38
   6     2.148737E-36    1.058783E-34   -7.725718E-33   -2.492639E-30   -3.288907E-28   -2.968414E-26   -1.998132E-24   -1.023358E-22   -3.975975E-21   -1.153301E-19
        -2.424921E-18   -3.507112E-17   -7.200820E-16   -1.103887E-14   -8.066284E-14   -2.797274E-13   -8.066192E-14   -1.103843E-14   -7.199883E-16   -3.505148E-17
        -2.420620E-18   -1.148790E-19   -3.948601E-21   -1.012374E-22   -1.966722E-24   -2.900808E-26   -3.175849E-28   -2.343392E-30   -6.166721E-33    1.185607E-34
         2.224879E-36
   7     7.360619E-35   -9.942003E-33   -2.505644E-30   -3.175938E-28   -2.879205E-26   -1.998132E-24   -1.076103E-22   -4.469920E-21   -1.409074E-19   -3.291415E-18
        -5.511852E-17   -1.482911E-15   -2.937356E-14   -2.452475E-13   -1.303555E-12    1.935651E-12   -1.303554E-12   -2.452427E-13   -2.937242E-14   -1.482610E-15
        -5.504833E-17   -3.281289E-18   -1.401272E-19   -4.432390E-21   -1.063391E-22   -1.965931E-24   -2.815348E-26   -3.074262E-28   -2.374036E-30   -8.556114E-33
         8.529332E-35
   8    -1.309269E-32   -2.512710E-30   -2.959178E-28   -2.626618E-26   -1.840158E-24   -1.023358E-22   -4.469920E-21   -1.505791E-19   -3.834474E-18   -7.260822E-17
        -2.344665E-15   -5.571718E-14   -5.803170E-13   -2.328024E-12    6.926644E-11    1.058982E-09    6.926611E-11   -2.328072E-12   -5.802997E-13   -5.572103E-14
        -2.343816E-15   -7.245246E-17   -3.818676E-18   -1.496227E-19   -4.431165E-21   -1.011733E-22   -1.813028E-24   -2.575400E-26   -2.879257E-28   -2.408498E-30
        -1.194874E-32
   9    -2.511403E-30   -2.651453E-28   -2.249087E-26   -1.558216E-24   -8.792314E-23   -3.975975E-21   -1.409074E-19   -3.834474E-18   -7.966539E-17   -2.935992E-15
        -7.979962E-14   -9.804058E-13   -6.582437E-13    4.267089E-10    1.434490E-08    2.308973E-07    1.434490E-08    4.267072E-10   -6.582916E-13   -9.803617E-13
        -7.981178E-14   -2.934512E-15   -7.945501E-17   -3.817996E-18   -1.400680E-19   -3.945831E-21   -8.709022E-23   -1.539710E-24   -2.214872E-26   -2.597738E-28
        -2.438150E-30
  10    -2.284007E-28   -1.791593E-26   -1.204680E-24   -6.787555E-23   -3.134787E-21   -1.153301E-19   -3.291415E-18   -7.260822E-17   -2.935992E-15   -8.961647E-14
        -1.254476E-12    4.333807E-12    1.330332E-09    7.671524E-08    2.800359E-06    4.484942E-05    2.800359E-06    7.671526E-08    1.330325E-09    4.334653E-12
        -1.254425E-12   -8.963568E-14   -2.934439E-15   -7.243626E-17   -3.279951E-18   -1.148088E-19   -3.117491E-21   -6.742080E-23   -1.194796E-24   -1.773252E-26
        -2.253914E-28
  11    -1.307236E-26   -8.300755E-25   -4.618812E-23   -2.160103E-21   -8.193454E-20   -2.424921E-18   -5.511852E-17   -2.344665E-15   -7.979962E-14   -1.254476E-12
         7.388722E-12    2.318905E-09    1.982635E-07    1.192780E-05    4.202019E-04    6.393390E-03    4.202019E-04    1.192780E-05    1.982636E-07    2.318883E-09
         7.390856E-12   -1.254427E-12   -7.981506E-14   -2.343702E-15   -5.503431E-17   -2.419687E-18   -8.171282E-20   -2.153095E-21   -4.600834E-23   -8.261709E-25
        -1.299692E-26
  12    -4.836957E-25   -2.621803E-23   -1.246004E-21   -4.905649E-20   -1.517557E-18   -3.507112E-17   -1.482911E-15   -5.571718E-14   -9.804058E-13    4.333807E-12
         2.318905E-09    2.688038E-07    2.348902E-05    1.323350E-03    4.213591E-02    0.532982        4.213591E-02    1.323350E-03    2.348902E-05    2.688040E-07
         2.318880E-09    4.335017E-12   -9.803598E-13   -5.572334E-14   -1.482550E-15   -3.504630E-17   -1.516027E-18   -4.899506E-20   -1.244123E-21   -2.617026E-23
        -4.826256E-25
  13    -1.121601E-23   -5.464387E-22   -2.296803E-20   -7.739855E-19   -1.899560E-17   -7.200820E-16   -2.937356E-14   -5.803170E-13   -6.582437E-13    1.330332E-09
         1.982635E-07    2.348902E-05    1.870454E-03    8.997616E-02     1.98634         13.2356         1.98634        8.997616E-02    1.870454E-03    2.348902E-05
         1.982636E-07    1.330323E-09   -6.582002E-13   -5.802982E-13   -2.937250E-14   -7.199679E-16   -1.899030E-17   -7.736906E-19   -2.295708E-20   -5.461192E-22
        -1.120789E-23
  14    -1.800646E-22   -7.897125E-21   -3.029164E-19   -9.705832E-18   -2.569505E-16   -1.103887E-14   -2.452475E-13   -2.328024E-12    4.267089E-10    7.671524E-08
         1.192780E-05    1.323350E-03    8.997616E-02     2.71498         24.5159         63.8385         24.5159         2.71498        8.997616E-02    1.323350E-03
         1.192780E-05    7.671526E-08    4.267068E-10   -2.328075E-12   -2.452421E-13   -1.103837E-14   -2.569326E-16   -9.704854E-18   -3.028770E-19   -7.895861E-21
        -1.800292E-22
  15    -2.032647E-21   -7.740787E-20   -2.519343E-18   -6.537896E-17   -2.908055E-15   -8.066284E-14   -1.303555E-12    6.926644E-11    1.434490E-08    2.800359E-06
         4.202019E-04    4.213591E-02     1.98634         24.5159         73.7226         95.9820         73.7226         24.5159         1.98634        4.213591E-02
         4.202019E-04    2.800359E-06    1.434490E-08    6.926605E-11   -1.303554E-12   -8.066178E-14   -2.908000E-15   -6.537757E-17   -2.519274E-18   -7.740536E-20
        -2.032573E-21
  16    -1.858402E-20   -5.821447E-19   -1.406169E-17   -4.945547E-16   -1.368739E-14   -2.797274E-13    1.935651E-12    1.058982E-09    2.308973E-07    4.484942E-05
         6.393390E-03    0.532982         13.2356         63.8385         95.9820         99.9985         95.9820         63.8385         13.2356        0.532982    
         6.393390E-03    4.484942E-05    2.308973E-07    1.058982E-09    1.935651E-12   -2.797274E-13   -1.368739E-14   -4.945547E-16   -1.406170E-17   -5.821447E-19
        -1.858402E-20
  17    -2.032581E-21   -7.740562E-20   -2.519281E-18   -6.537772E-17   -2.908007E-15   -8.066192E-14   -1.303554E-12    6.926611E-11    1.434490E-08    2.800359E-06
         4.202019E-04    4.213591E-02     1.98634         24.5159         73.7226         95.9820         73.7226         24.5159         1.98634        4.213591E-02
         4.202019E-04    2.800359E-06    1.434490E-08    6.926644E-11   -1.303555E-12   -8.066284E-14   -2.908055E-15   -6.537896E-17   -2.519343E-18   -7.740787E-20
        -2.032647E-21
  18    -1.800357E-22   -7.896086E-21   -3.028838E-19   -9.705015E-18   -2.569354E-16   -1.103843E-14   -2.452427E-13   -2.328072E-12    4.267072E-10    7.671526E-08
         1.192780E-05    1.323350E-03    8.997616E-02     2.71498         24.5159         63.8385         24.5159         2.71498        8.997616E-02    1.323350E-03
         1.192780E-05    7.671524E-08    4.267089E-10   -2.328024E-12   -2.452474E-13   -1.103887E-14   -2.569505E-16   -9.705832E-18   -3.029164E-19   -7.897125E-21
        -1.800646E-22
  19    -1.120982E-23   -5.461930E-22   -2.295954E-20   -7.737545E-19   -1.899140E-17   -7.199883E-16   -2.937242E-14   -5.802997E-13   -6.582916E-13    1.330325E-09
         1.982636E-07    2.348902E-05    1.870454E-03    8.997616E-02     1.98634         13.2356         1.98634        8.997616E-02    1.870454E-03    2.348902E-05
         1.982635E-07    1.330332E-09   -6.582436E-13   -5.803170E-13   -2.937356E-14   -7.200820E-16   -1.899560E-17   -7.739854E-19   -2.296803E-20   -5.464387E-22
        -1.121601E-23
  20    -4.828847E-25   -2.618159E-23   -1.244558E-21   -4.900888E-20   -1.516361E-18   -3.505148E-17   -1.482610E-15   -5.572103E-14   -9.803617E-13    4.334653E-12
         2.318883E-09    2.688040E-07    2.348902E-05    1.323350E-03    4.213591E-02    0.532982        4.213591E-02    1.323350E-03    2.348902E-05    2.688038E-07
         2.318905E-09    4.333807E-12   -9.804058E-13   -5.571718E-14   -1.482911E-15   -3.507112E-17   -1.517557E-18   -4.905649E-20   -1.246004E-21   -2.621803E-23
        -4.836957E-25
  21    -1.301305E-26   -8.269886E-25   -4.604500E-23   -2.154475E-21   -8.175465E-20   -2.420620E-18   -5.504833E-17   -2.343816E-15   -7.981178E-14   -1.254425E-12
         7.390856E-12    2.318880E-09    1.982636E-07    1.192780E-05    4.202019E-04    6.393390E-03    4.202019E-04    1.192780E-05    1.982635E-07    2.318905E-09
         7.388722E-12   -1.254476E-12   -7.979962E-14   -2.344665E-15   -5.511852E-17   -2.424921E-18   -8.193454E-20   -2.160103E-21   -4.618812E-23   -8.300755E-25
        -1.307236E-26
  22    -2.259204E-28   -1.776404E-26   -1.196437E-24   -6.749278E-23   -3.120049E-21   -1.148790E-19   -3.281289E-18   -7.245246E-17   -2.934512E-15   -8.963568E-14
        -1.254427E-12    4.335017E-12    1.330323E-09    7.671526E-08    2.800359E-06    4.484942E-05    2.800359E-06    7.671524E-08    1.330332E-09    4.333807E-12
        -1.254476E-12   -8.961647E-14   -2.935992E-15   -7.260822E-17   -3.291415E-18   -1.153301E-19   -3.134787E-21   -6.787555E-23   -1.204680E-24   -1.791593E-26
        -2.284007E-28
  23    -2.448235E-30   -2.604954E-28   -2.219264E-26   -1.541926E-24   -8.718011E-23   -3.948601E-21   -1.401272E-19   -3.818676E-18   -7.945501E-17   -2.934439E-15
        -7.981506E-14   -9.803598E-13   -6.582002E-13    4.267068E-10    1.434490E-08    2.308973E-07    1.434490E-08    4.267089E-10   -6.582436E-13   -9.804058E-13
        -7.979962E-14   -2.935992E-15   -7.966539E-17   -3.834474E-18   -1.409074E-19   -3.975975E-21   -8.792314E-23   -1.558216E-24   -2.249087E-26   -2.651453E-28
        -2.511403E-30
  24    -1.206667E-32   -2.418973E-30   -2.886818E-28   -2.579774E-26   -1.814996E-24   -1.012374E-22   -4.432390E-21   -1.496227E-19   -3.817996E-18   -7.243626E-17
        -2.343702E-15   -5.572334E-14   -5.802982E-13   -2.328075E-12    6.926605E-11    1.058982E-09    6.926644E-11   -2.328024E-12   -5.803170E-13   -5.571718E-14
        -2.344665E-15   -7.260822E-17   -3.834474E-18   -1.505791E-19   -4.469920E-21   -1.023358E-22   -1.840158E-24   -2.626618E-26   -2.959178E-28   -2.512710E-30
        -1.309269E-32
  25     8.443899E-35   -8.655246E-33   -2.382708E-30   -3.080001E-28   -2.818090E-26   -1.966722E-24   -1.063391E-22   -4.431165E-21   -1.400680E-19   -3.279951E-18
        -5.503431E-17   -1.482550E-15   -2.937250E-14   -2.452421E-13   -1.303554E-12    1.935651E-12   -1.303555E-12   -2.452474E-13   -2.937356E-14   -1.482911E-15
        -5.511852E-17   -3.291415E-18   -1.409074E-19   -4.469920E-21   -1.076103E-22   -1.998132E-24   -2.879205E-26   -3.175938E-28   -2.505644E-30   -9.942003E-33
         7.360620E-35
  26     2.221253E-36    1.179588E-34   -6.232626E-33   -2.348288E-30   -3.177989E-28   -2.900808E-26   -1.965931E-24   -1.011733E-22   -3.945831E-21   -1.148088E-19
        -2.419687E-18   -3.504630E-17   -7.199679E-16   -1.103837E-14   -8.066178E-14   -2.797274E-13   -8.066284E-14   -1.103887E-14   -7.200820E-16   -3.507112E-17
        -2.424921E-18   -1.153301E-19   -3.975975E-21   -1.023358E-22   -1.998132E-24   -2.968414E-26   -3.288907E-28   -2.492639E-30   -7.725718E-33    1.058783E-34
         2.148737E-36
  27     2.154020E-38    2.335116E-36    1.377341E-34   -4.957438E-33   -2.333076E-30   -3.175849E-28   -2.815348E-26   -1.813028E-24   -8.709022E-23   -3.117491E-21
        -8.171282E-20   -1.516027E-18   -1.899030E-17   -2.569326E-16   -2.908000E-15   -1.368739E-14   -2.908055E-15   -2.569505E-16   -1.899560E-17   -1.517557E-18
        -8.193454E-20   -3.134787E-21   -8.792314E-23   -1.840158E-24   -2.879205E-26   -3.288907E-28   -2.486829E-30   -6.571552E-33    1.248427E-34    2.260822E-36
         2.128213E-38
  28     1.227782E-40    2.105613E-38    2.383135E-36    1.443030E-34   -4.934385E-33   -2.343392E-30   -3.074262E-28   -2.575400E-26   -1.539710E-24   -6.742080E-23
        -2.153095E-21   -4.899506E-20   -7.736906E-19   -9.704854E-18   -6.537757E-17   -4.945547E-16   -6.537896E-17   -9.705832E-18   -7.739854E-19   -4.905649E-20
        -2.160103E-21   -6.787555E-23   -1.558216E-24   -2.626618E-26   -3.175938E-28   -2.492639E-30   -6.571552E-33    1.310406E-34    2.307832E-36    2.080631E-38
         1.227781E-40
  29     4.128643E-43    1.165891E-40    2.085329E-38    2.383839E-36    1.380439E-34   -6.166721E-33   -2.374036E-30   -2.879257E-28   -2.214872E-26   -1.194796E-24
        -4.600834E-23   -1.244123E-21   -2.295708E-20   -3.028770E-19   -2.519274E-18   -1.406170E-17   -2.519343E-18   -3.029164E-19   -2.296803E-20   -1.246004E-21
        -4.618812E-23   -1.204680E-24   -2.249087E-26   -2.959178E-28   -2.505644E-30   -7.725718E-33    1.248427E-34    2.307832E-36    2.060570E-38    1.165978E-40
         4.167432E-43
  30     6.597371E-46    3.914228E-43    1.165868E-40    2.105924E-38    2.337252E-36    1.185607E-34   -8.556114E-33   -2.408498E-30   -2.597738E-28   -1.773252E-26
        -8.261709E-25   -2.617026E-23   -5.461192E-22   -7.895861E-21   -7.740536E-20   -5.821447E-19   -7.740787E-20   -7.897125E-21   -5.464387E-22   -2.621803E-23
        -8.300755E-25   -1.791593E-26   -2.651453E-28   -2.512710E-30   -9.942003E-33    1.058783E-34    2.260822E-36    2.080631E-38    1.165978E-40    3.951224E-43
         6.714593E-46
  31      0.00000        6.597242E-46    4.128245E-43    1.227709E-40    2.154682E-38    2.224879E-36    8.529332E-35   -1.194874E-32   -2.438150E-30   -2.253914E-28
        -1.299692E-26   -4.826256E-25   -1.120789E-23   -1.800292E-22   -2.032573E-21   -1.858402E-20   -2.032647E-21   -1.800646E-22   -1.121601E-23   -4.836957E-25
        -1.307236E-26   -2.284007E-28   -2.511403E-30   -1.309269E-32    7.360620E-35    2.148737E-36    2.128213E-38    1.227781E-40    4.167432E-43    6.714593E-46
          0.00000    

 CONCENTRATION WILL BE SAVED ON UNIT 1030 AT END OF TIME STEP   34, STRESS PERIOD    1


  MASS BUDGET FOR ENTIRE MODEL AT END OF TIME STEP   34, STRESS PERIOD   1
  ---------------------------------------------------------------------------------------------------

     CUMULATIVE MASS      M       RATES FOR THIS TIME STEP      M/T          PACKAGE NAME    
     ------------------                 ------------------------                     ----------------

           IN:                                      IN:
           ---                                      ---
     STORAGE-AQUEOUS =       4.9880E-03       STORAGE-AQUEOUS =       9.5675E-07     MST                              
                 WEL =  7446000000.0000                   WEL =     8640000.0000     SSM_WEL-1                        
                 CHD =           0.0000                   CHD =           0.0000     SSM_CHD-1                        

            TOTAL IN =  7446000000.0050              TOTAL IN =     8640000.0000

          OUT:                                     OUT:
          ----                                     ----
     STORAGE-AQUEOUS =  7446000000.0050       STORAGE-AQUEOUS =     8640000.0000     MST                              
                 WEL =           0.0000                   WEL =           0.0000     SSM_WEL-1                        
                 CHD =       7.5562E-18                   CHD =       4.0510E-31     SSM_CHD-1                        

           TOTAL OUT =  7446000000.0050             TOTAL OUT =     8640000.0000

            IN - OUT =      -1.7166E-05              IN - OUT =      -1.3970E-07

 PERCENT DISCREPANCY =          -0.00     PERCENT DISCREPANCY =          -0.00




         TIME SUMMARY AT END OF TIME STEP   34 IN STRESS PERIOD    1
                    SECONDS     MINUTES      HOURS       DAYS        YEARS
                    -----------------------------------------------------------
   TIME STEP LENGTH 2.19000E+06  36500.      608.33      25.347     6.93969E-02
 STRESS PERIOD TIME 7.44600E+07 1.24100E+06  20683.      861.81      2.3595    
         TOTAL TIME 7.44600E+07 1.24100E+06  20683.      861.81      2.3595    


end timestep


start timestep kper="1" kstp="35" mode="normal"

 UBDSV1 SAVING  STORAGE-AQUEOUS ON UNIT   1029 AT TIME STEP     35, STRESS PERIOD      1
 UBDSV1 SAVING     FLOW-JA-FACE ON UNIT   1029 AT TIME STEP     35, STRESS PERIOD      1
 UBDSV06 SAVING  SOURCE-SINK MIX IN MODEL GWT_P06-MF6      PACKAGE GWT_P06-MF6     CONNECTED TO MODEL GWT_P06-MF6      PACKAGE SSM              ON UNIT   1029 AT TIME STEP     35, STRESS PERIOD      1
1
  CONCENTRATION IN LAYER   1 AT END OF TIME STEP  35 IN STRESS PERIOD    1
  ---------------------------------------------------------------------------

                1               2               3               4               5               6               7               8               9              10
               11              12              13              14              15              16              17              18              19              20
               21              22              23              24              25              26              27              28              29              30
               31
 ................................................................................................................................................................................................................................................................................................................................................................................................................................................................................................................
   1      0.00000        1.015915E-45    6.040945E-43    1.680608E-40    2.661068E-38    2.177577E-36   -2.436739E-35   -3.121954E-32   -4.383204E-30   -3.566464E-28
        -1.910910E-26   -6.766242E-25   -1.529371E-23   -2.397668E-22   -2.606591E-21   -2.256065E-20   -2.606510E-21   -2.397305E-22   -1.528582E-23   -6.755671E-25
        -1.902966E-26   -3.532167E-28   -4.292532E-30   -2.967661E-32   -7.031810E-36    2.304758E-36    2.716889E-38    1.690094E-40    6.012736E-43    1.002579E-45
          0.00000    
   2     1.015915E-45    5.727772E-43    1.596917E-40    2.610688E-38    2.349248E-36    1.636253E-35   -2.821539E-32   -4.579262E-30   -4.229895E-28   -2.645841E-26
        -1.159236E-24   -3.508476E-23   -7.098204E-22   -1.008448E-20   -9.502399E-20   -6.698865E-19   -9.502130E-20   -1.008322E-20   -7.095181E-22   -3.503888E-23
        -1.155242E-24   -2.625588E-26   -4.165764E-28   -4.444843E-30   -2.628119E-32    3.567878E-35    2.479948E-36    2.665049E-38    1.605861E-40    5.700812E-43
         1.002563E-45
   3     6.040945E-43    1.596917E-40    2.588397E-38    2.423848E-36    4.026227E-35   -2.618676E-32   -4.740320E-30   -4.813737E-28   -3.361543E-26   -1.692490E-24
        -6.168316E-23   -1.594348E-21   -2.841239E-20   -3.728093E-19   -2.969607E-18   -1.526739E-17   -2.969535E-18   -3.727707E-19   -2.840231E-20   -1.592589E-21
        -6.150414E-23   -1.681870E-24   -3.321878E-26   -4.714056E-28   -4.564044E-30   -2.394089E-32    6.089976E-35    2.556544E-36    2.642408E-38    1.605884E-40
         6.012371E-43
   4     1.680608E-40    2.610688E-38    2.423848E-36    4.810620E-35   -2.512519E-32   -4.835279E-30   -5.239768E-28   -3.964071E-26   -2.203780E-24   -9.094825E-23
        -2.758899E-21   -5.997731E-20   -9.107949E-19   -1.159606E-17   -7.448727E-17   -5.479011E-16   -7.448588E-17   -1.159512E-17   -9.105318E-19   -5.992133E-20
        -2.752092E-21   -9.047128E-23   -2.182848E-24   -3.901868E-26   -5.107701E-28   -4.628308E-30   -2.269653E-32    6.934677E-35    2.557814E-36    2.665809E-38
         1.690168E-40
   5     2.661068E-38    2.349248E-36    4.026227E-35   -2.512519E-32   -4.866697E-30   -5.466124E-28   -4.371841E-26   -2.615543E-24   -1.182689E-22   -4.014212E-21
        -1.002472E-19   -1.778793E-18   -2.148784E-17   -3.019955E-16   -3.282030E-15   -1.586182E-14   -3.281978E-15   -3.019783E-16   -2.148322E-17   -1.777430E-18
        -1.000368E-19   -3.996440E-21   -1.173454E-22   -2.583266E-24   -4.290763E-26   -5.313490E-28   -4.646256E-30   -2.266184E-32    6.139880E-35    2.483797E-36
         2.718498E-38
   6     2.177577E-36    1.636253E-35   -2.618676E-32   -4.835279E-30   -5.466124E-28   -4.516602E-26   -2.847430E-24   -1.380242E-22   -5.106175E-21   -1.416528E-19
        -2.860722E-18   -4.006375E-17   -8.429981E-16   -1.308818E-14   -9.054843E-14   -3.234889E-13   -9.054738E-14   -1.308768E-14   -8.428920E-16   -4.004182E-17
        -2.855847E-18   -1.411259E-19   -5.073227E-21   -1.366610E-22   -2.807174E-24   -4.426947E-26   -5.310559E-28   -4.621312E-30   -2.384179E-32    3.664686E-35
         2.311266E-36
   7    -2.436739E-35   -2.821539E-32   -4.740320E-30   -5.239768E-28   -4.371841E-26   -2.847430E-24   -1.452725E-22   -5.750112E-21   -1.736068E-19   -3.906461E-18
        -6.349349E-17   -1.730150E-15   -3.466894E-14   -2.808352E-13   -1.362628E-12    3.339229E-12   -1.362628E-12   -2.808300E-13   -3.466754E-14   -1.729829E-15
        -6.341508E-17   -3.894966E-18   -1.726963E-19   -5.704986E-21   -1.436958E-22   -2.806165E-24   -4.287147E-26   -5.099840E-28   -4.551654E-30   -2.613229E-32
        -5.657442E-36
   8    -3.121954E-32   -4.579262E-30   -4.813737E-28   -3.964071E-26   -2.615543E-24   -1.380242E-22   -5.750112E-21   -1.857305E-19   -4.565423E-18   -8.395897E-17
        -2.732726E-15   -6.547201E-14   -6.633230E-13   -1.918247E-12    9.176914E-11    1.362741E-09    9.176879E-11   -1.918310E-12   -6.633041E-13   -6.547538E-14
        -2.731855E-15   -8.378559E-17   -4.547472E-18   -1.846147E-19   -5.703520E-21   -1.365819E-22   -2.580756E-24   -3.896094E-26   -4.703696E-28   -4.429881E-30
        -2.949950E-32
   9    -4.383204E-30   -4.229895E-28   -3.361543E-26   -2.203780E-24   -1.182689E-22   -5.106175E-21   -1.736068E-19   -4.565423E-18   -9.221785E-17   -3.421201E-15
        -9.355754E-14   -1.105767E-12    1.502268E-12    5.645258E-10    1.878630E-08    2.968513E-07    1.878630E-08    5.645241E-10    1.502154E-12   -1.105714E-12
        -9.356977E-14   -3.419707E-15   -9.198397E-17   -4.546700E-18   -1.726275E-19   -5.069908E-21   -1.172342E-22   -2.180018E-24   -3.316071E-26   -4.155868E-28
        -4.278119E-30
  10    -3.566464E-28   -2.645841E-26   -1.692490E-24   -9.094825E-23   -4.014212E-21   -1.416528E-19   -3.906461E-18   -8.395897E-17   -3.421201E-15   -1.049906E-13
        -1.401800E-12    9.327534E-12    1.767996E-09    1.008680E-07    3.604441E-06    5.623140E-05    3.604441E-06    1.008681E-07    1.767989E-09    9.328198E-12
        -1.401726E-12   -1.050106E-13   -3.419637E-15   -8.376753E-17   -3.893450E-18   -1.410443E-19   -3.993368E-21   -9.038206E-23   -1.679768E-24   -2.621411E-26
        -3.524895E-28
  11    -1.910910E-26   -1.159236E-24   -6.168316E-23   -2.758899E-21   -1.002472E-19   -2.860722E-18   -6.349349E-17   -2.732726E-15   -9.355754E-14   -1.401800E-12
         1.390536E-11    3.089100E-09    2.609930E-07    1.535427E-05    5.274201E-04    7.794303E-03    5.274201E-04    1.535427E-05    2.609931E-07    3.089080E-09
         1.390722E-11   -1.401726E-12   -9.357327E-14   -2.731744E-15   -6.339941E-17   -2.854792E-18   -9.998799E-20   -2.750430E-21   -6.145854E-23   -1.154191E-24
        -1.900819E-26
  12    -6.766242E-25   -3.508476E-23   -1.594348E-21   -5.997731E-20   -1.778793E-18   -4.006375E-17   -1.730150E-15   -6.547201E-14   -1.105767E-12    9.327534E-12
         3.089100E-09    3.539171E-07    3.022827E-05    1.659498E-03    5.124318E-02    0.621622        5.124318E-02    1.659498E-03    3.022827E-05    3.539172E-07
         3.089077E-09    9.328546E-12   -1.105710E-12   -6.547777E-14   -1.729768E-15   -4.003605E-17   -1.777051E-18   -5.990513E-20   -1.592063E-21   -3.502471E-23
        -6.752317E-25
  13    -1.529371E-23   -7.098204E-22   -2.841239E-20   -9.107949E-19   -2.148784E-17   -8.429981E-16   -3.466894E-14   -6.633230E-13    1.502268E-12    1.767996E-09
         2.609930E-07    3.022827E-05    2.343387E-03    0.109050         2.28941         14.4042         2.28941        0.109050        2.343387E-03    3.022827E-05
         2.609931E-07    1.767987E-09    1.502236E-12   -6.633021E-13   -3.466761E-14   -8.428696E-16   -2.148202E-17   -9.104594E-19   -2.839942E-20   -7.094279E-22
        -1.528338E-23
  14    -2.397668E-22   -1.008448E-20   -3.728093E-19   -1.159606E-17   -3.019955E-16   -1.308818E-14   -2.808352E-13   -1.918247E-12    5.645258E-10    1.008680E-07
         1.535427E-05    1.659498E-03    0.109050         3.11837         26.3624         65.5855         26.3624         3.11837        0.109050        1.659498E-03
         1.535427E-05    1.008681E-07    5.645238E-10   -1.918315E-12   -2.808293E-13   -1.308761E-14   -3.019751E-16   -1.159493E-17   -3.727627E-19   -1.008295E-20
        -2.397225E-22
  15    -2.606591E-21   -9.502399E-20   -2.969607E-18   -7.448727E-17   -3.282030E-15   -9.054843E-14   -1.362628E-12    9.176914E-11    1.878630E-08    3.604441E-06
         5.274201E-04    5.124318E-02     2.28941         26.3624         75.3254         96.2693         75.3254         26.3624         2.28941        5.124318E-02
         5.274201E-04    3.604441E-06    1.878630E-08    9.176872E-11   -1.362628E-12   -9.054723E-14   -3.281970E-15   -7.448571E-17   -2.969527E-18   -9.502099E-20
        -2.606500E-21
  16    -2.256065E-20   -6.698865E-19   -1.526739E-17   -5.479011E-16   -1.586182E-14   -3.234889E-13    3.339229E-12    1.362741E-09    2.968513E-07    5.623140E-05
         7.794303E-03    0.621622         14.4042         65.5855         96.2693         99.9989         96.2693         65.5855         14.4042        0.621622    
         7.794303E-03    5.623140E-05    2.968513E-07    1.362741E-09    3.339230E-12   -3.234889E-13   -1.586182E-14   -5.479012E-16   -1.526739E-17   -6.698865E-19
        -2.256065E-20
  17    -2.606510E-21   -9.502130E-20   -2.969535E-18   -7.448588E-17   -3.281978E-15   -9.054738E-14   -1.362628E-12    9.176879E-11    1.878630E-08    3.604441E-06
         5.274201E-04    5.124318E-02     2.28941         26.3624         75.3254         96.2693         75.3254         26.3624         2.28941        5.124318E-02
         5.274201E-04    3.604441E-06    1.878630E-08    9.176914E-11   -1.362628E-12   -9.054842E-14   -3.282030E-15   -7.448727E-17   -2.969607E-18   -9.502399E-20
        -2.606591E-21
  18    -2.397305E-22   -1.008322E-20   -3.727707E-19   -1.159512E-17   -3.019783E-16   -1.308768E-14   -2.808300E-13   -1.918310E-12    5.645241E-10    1.008681E-07
         1.535427E-05    1.659498E-03    0.109050         3.11837         26.3624         65.5855         26.3624         3.11837        0.109050        1.659498E-03
         1.535427E-05    1.008680E-07    5.645258E-10   -1.918247E-12   -2.808352E-13   -1.308818E-14   -3.019955E-16   -1.159606E-17   -3.728093E-19   -1.008448E-20
        -2.397668E-22
  19    -1.528582E-23   -7.095181E-22   -2.840231E-20   -9.105318E-19   -2.148322E-17   -8.428920E-16   -3.466754E-14   -6.633041E-13    1.502154E-12    1.767989E-09
         2.609931E-07    3.022827E-05    2.343387E-03    0.109050         2.28941         14.4042         2.28941        0.109050        2.343387E-03    3.022827E-05
         2.609930E-07    1.767996E-09    1.502268E-12   -6.633230E-13   -3.466894E-14   -8.429981E-16   -2.148784E-17   -9.107949E-19   -2.841239E-20   -7.098204E-22
        -1.529371E-23
  20    -6.755671E-25   -3.503888E-23   -1.592589E-21   -5.992133E-20   -1.777430E-18   -4.004182E-17   -1.729829E-15   -6.547538E-14   -1.105714E-12    9.328198E-12
         3.089080E-09    3.539172E-07    3.022827E-05    1.659498E-03    5.124318E-02    0.621622        5.124318E-02    1.659498E-03    3.022827E-05    3.539171E-07
         3.089100E-09    9.327534E-12   -1.105767E-12   -6.547201E-14   -1.730150E-15   -4.006375E-17   -1.778793E-18   -5.997731E-20   -1.594348E-21   -3.508476E-23
        -6.766242E-25
  21    -1.902966E-26   -1.155242E-24   -6.150414E-23   -2.752092E-21   -1.000368E-19   -2.855847E-18   -6.341508E-17   -2.731855E-15   -9.356977E-14   -1.401726E-12
         1.390722E-11    3.089077E-09    2.609931E-07    1.535427E-05    5.274201E-04    7.794303E-03    5.274201E-04    1.535427E-05    2.609930E-07    3.089100E-09
         1.390536E-11   -1.401800E-12   -9.355754E-14   -2.732726E-15   -6.349349E-17   -2.860722E-18   -1.002472E-19   -2.758899E-21   -6.168316E-23   -1.159236E-24
        -1.910910E-26
  22    -3.532167E-28   -2.625588E-26   -1.681870E-24   -9.047128E-23   -3.996440E-21   -1.411259E-19   -3.894966E-18   -8.378559E-17   -3.419707E-15   -1.050106E-13
        -1.401726E-12    9.328546E-12    1.767987E-09    1.008681E-07    3.604441E-06    5.623140E-05    3.604441E-06    1.008680E-07    1.767996E-09    9.327534E-12
        -1.401800E-12   -1.049906E-13   -3.421201E-15   -8.395897E-17   -3.906461E-18   -1.416528E-19   -4.014212E-21   -9.094825E-23   -1.692490E-24   -2.645841E-26
        -3.566464E-28
  23    -4.292532E-30   -4.165764E-28   -3.321878E-26   -2.182848E-24   -1.173454E-22   -5.073227E-21   -1.726963E-19   -4.547472E-18   -9.198397E-17   -3.419637E-15
        -9.357327E-14   -1.105710E-12    1.502236E-12    5.645238E-10    1.878630E-08    2.968513E-07    1.878630E-08    5.645258E-10    1.502268E-12   -1.105767E-12
        -9.355754E-14   -3.421201E-15   -9.221785E-17   -4.565423E-18   -1.736068E-19   -5.106175E-21   -1.182689E-22   -2.203780E-24   -3.361543E-26   -4.229895E-28
        -4.383204E-30
  24    -2.967661E-32   -4.444843E-30   -4.714056E-28   -3.901868E-26   -2.583266E-24   -1.366610E-22   -5.704986E-21   -1.846147E-19   -4.546700E-18   -8.376753E-17
        -2.731744E-15   -6.547777E-14   -6.633021E-13   -1.918315E-12    9.176872E-11    1.362741E-09    9.176914E-11   -1.918247E-12   -6.633230E-13   -6.547201E-14
        -2.732726E-15   -8.395897E-17   -4.565423E-18   -1.857305E-19   -5.750112E-21   -1.380242E-22   -2.615543E-24   -3.964071E-26   -4.813737E-28   -4.579262E-30
        -3.121954E-32
  25    -7.031810E-36   -2.628119E-32   -4.564044E-30   -5.107701E-28   -4.290763E-26   -2.807174E-24   -1.436958E-22   -5.703520E-21   -1.726275E-19   -3.893450E-18
        -6.339941E-17   -1.729768E-15   -3.466761E-14   -2.808293E-13   -1.362628E-12    3.339230E-12   -1.362628E-12   -2.808352E-13   -3.466894E-14   -1.730150E-15
        -6.349349E-17   -3.906461E-18   -1.736068E-19   -5.750112E-21   -1.452725E-22   -2.847430E-24   -4.371841E-26   -5.239768E-28   -4.740320E-30   -2.821539E-32
        -2.436739E-35
  26     2.304758E-36    3.567878E-35   -2.394089E-32   -4.628308E-30   -5.313490E-28   -4.426947E-26   -2.806165E-24   -1.365819E-22   -5.069908E-21   -1.410443E-19
        -2.854792E-18   -4.003605E-17   -8.428696E-16   -1.308761E-14   -9.054723E-14   -3.234889E-13   -9.054842E-14   -1.308818E-14   -8.429981E-16   -4.006375E-17
        -2.860722E-18   -1.416528E-19   -5.106175E-21   -1.380242E-22   -2.847430E-24   -4.516602E-26   -5.466124E-28   -4.835279E-30   -2.618676E-32    1.636253E-35
         2.177577E-36
  27     2.716889E-38    2.479948E-36    6.089976E-35   -2.269653E-32   -4.646256E-30   -5.310559E-28   -4.287147E-26   -2.580756E-24   -1.172342E-22   -3.993368E-21
        -9.998799E-20   -1.777051E-18   -2.148202E-17   -3.019751E-16   -3.281970E-15   -1.586182E-14   -3.282030E-15   -3.019955E-16   -2.148784E-17   -1.778793E-18
        -1.002472E-19   -4.014212E-21   -1.182689E-22   -2.615543E-24   -4.371841E-26   -5.466124E-28   -4.866697E-30   -2.512519E-32    4.026227E-35    2.349248E-36
         2.661068E-38
  28     1.690094E-40    2.665049E-38    2.556544E-36    6.934677E-35   -2.266184E-32   -4.621312E-30   -5.099840E-28   -3.896094E-26   -2.180018E-24   -9.038206E-23
        -2.750430E-21   -5.990513E-20   -9.104594E-19   -1.159493E-17   -7.448571E-17   -5.479012E-16   -7.448727E-17   -1.159606E-17   -9.107949E-19   -5.997731E-20
        -2.758899E-21   -9.094825E-23   -2.203780E-24   -3.964071E-26   -5.239768E-28   -4.835279E-30   -2.512519E-32    4.810621E-35    2.423848E-36    2.610688E-38
         1.680608E-40
  29     6.012736E-43    1.605861E-40    2.642408E-38    2.557814E-36    6.139880E-35   -2.384179E-32   -4.551654E-30   -4.703696E-28   -3.316071E-26   -1.679768E-24
        -6.145854E-23   -1.592063E-21   -2.839942E-20   -3.727627E-19   -2.969527E-18   -1.526739E-17   -2.969607E-18   -3.728093E-19   -2.841239E-20   -1.594348E-21
        -6.168316E-23   -1.692490E-24   -3.361543E-26   -4.813737E-28   -4.740320E-30   -2.618676E-32    4.026227E-35    2.423848E-36    2.588397E-38    1.596917E-40
         6.040945E-43
  30     1.002579E-45    5.700812E-43    1.605884E-40    2.665809E-38    2.483797E-36    3.664686E-35   -2.613229E-32   -4.429881E-30   -4.155868E-28   -2.621411E-26
        -1.154191E-24   -3.502471E-23   -7.094279E-22   -1.008295E-20   -9.502099E-20   -6.698865E-19   -9.502399E-20   -1.008448E-20   -7.098204E-22   -3.508476E-23
        -1.159236E-24   -2.645841E-26   -4.229895E-28   -4.579262E-30   -2.821539E-32    1.636253E-35    2.349248E-36    2.610688E-38    1.596917E-40    5.727772E-43
         1.015915E-45
  31      0.00000        1.002563E-45    6.012371E-43    1.690168E-40    2.718498E-38    2.311266E-36   -5.657442E-36   -2.949950E-32   -4.278119E-30   -3.524895E-28
        -1.900819E-26   -6.752317E-25   -1.528338E-23   -2.397225E-22   -2.606500E-21   -2.256065E-20   -2.606591E-21   -2.397668E-22   -1.529371E-23   -6.766242E-25
        -1.910910E-26   -3.566464E-28   -4.383204E-30   -3.121954E-32   -2.436739E-35    2.177577E-36    2.661068E-38    1.680608E-40    6.040945E-43    1.015915E-45
          0.00000    

 CONCENTRATION WILL BE SAVED ON UNIT 1030 AT END OF TIME STEP   35, STRESS PERIOD    1


  MASS BUDGET FOR ENTIRE MODEL AT END OF TIME STEP   35, STRESS PERIOD   1
  ---------------------------------------------------------------------------------------------------

     CUMULATIVE MASS      M       RATES FOR THIS TIME STEP      M/T          PACKAGE NAME    
     ------------------                 ------------------------                     ----------------

           IN:                                      IN:
           ---                                      ---
     STORAGE-AQUEOUS =       5.0117E-03       STORAGE-AQUEOUS =       9.3677E-07     MST                              
                 WEL =  7665000000.0000                   WEL =     8640000.0000     SSM_WEL-1                        
                 CHD =           0.0000                   CHD =           0.0000     SSM_CHD-1                        

            TOTAL IN =  7665000000.0050              TOTAL IN =     8640000.0000

          OUT:                                     OUT:
          ----                                     ----
     STORAGE-AQUEOUS =  7665000000.0050       STORAGE-AQUEOUS =     8640000.0000     MST                              
                 WEL =           0.0000                   WEL =           0.0000     SSM_WEL-1                        
                 CHD =       7.5562E-18                   CHD =       9.4615E-33     SSM_CHD-1                        

           TOTAL OUT =  7665000000.0050             TOTAL OUT =     8640000.0000

            IN - OUT =      -2.0981E-05              IN - OUT =      -1.5460E-07

 PERCENT DISCREPANCY =          -0.00     PERCENT DISCREPANCY =          -0.00




         TIME SUMMARY AT END OF TIME STEP   35 IN STRESS PERIOD    1
                    SECONDS     MINUTES      HOURS       DAYS        YEARS
                    -----------------------------------------------------------
   TIME STEP LENGTH 2.19000E+06  36500.      608.33      25.347     6.93969E-02
 STRESS PERIOD TIME 7.66500E+07 1.27750E+06  21292.      887.15      2.4289    
         TOTAL TIME 7.66500E+07 1.27750E+06  21292.      887.15      2.4289    


end timestep


start timestep kper="1" kstp="36" mode="normal"

 UBDSV1 SAVING  STORAGE-AQUEOUS ON UNIT   1029 AT TIME STEP     36, STRESS PERIOD      1
 UBDSV1 SAVING     FLOW-JA-FACE ON UNIT   1029 AT TIME STEP     36, STRESS PERIOD      1
 UBDSV06 SAVING  SOURCE-SINK MIX IN MODEL GWT_P06-MF6      PACKAGE GWT_P06-MF6     CONNECTED TO MODEL GWT_P06-MF6      PACKAGE SSM              ON UNIT   1029 AT TIME STEP     36, STRESS PERIOD      1
1
  CONCENTRATION IN LAYER   1 AT END OF TIME STEP  36 IN STRESS PERIOD    1
  ---------------------------------------------------------------------------

                1               2               3               4               5               6               7               8               9              10
               11              12              13              14              15              16              17              18              19              20
               21              22              23              24              25              26              27              28              29              30
               31
 ................................................................................................................................................................................................................................................................................................................................................................................................................................................................................................................
   1      0.00000        1.500768E-45    8.503514E-43    2.208086E-40    3.086496E-38    1.638074E-36   -2.306567E-34   -6.201596E-32   -7.267118E-30   -5.418180E-28
        -2.740059E-26   -9.313170E-25   -2.052254E-23   -3.149940E-22   -3.304605E-21   -2.710123E-20   -3.304505E-21   -3.149488E-22   -2.051257E-23   -9.299533E-25
        -2.729535E-26   -5.371361E-28   -7.139000E-30   -5.974354E-32   -2.037496E-34    1.850016E-36    3.192385E-38    2.235590E-40    8.506069E-43    1.487577E-45
          0.00000    
   2     1.500768E-45    8.063096E-43    2.099785E-40    3.045567E-38    1.898270E-36   -1.806926E-34   -5.986165E-32   -7.801627E-30   -6.526661E-28   -3.823067E-26
        -1.592350E-24   -4.629390E-23   -9.097005E-22   -1.270855E-20   -1.156370E-19   -7.652250E-19   -1.156338E-19   -1.270702E-20   -9.093316E-22   -4.623667E-23
        -1.587234E-24   -3.796354E-26   -6.439344E-28   -7.611915E-30   -5.701442E-32   -1.507276E-34    2.116474E-36    3.148979E-38    2.125905E-40    8.065371E-43
         1.487560E-45
   3     8.503514E-43    2.099785E-40    3.025063E-38    2.015097E-36   -1.517580E-34   -5.860661E-32   -8.257541E-30   -7.530897E-28   -4.901965E-26   -2.335775E-24
        -8.123270E-23   -2.016256E-21   -3.476340E-20   -4.478379E-19   -3.482468E-18   -1.663494E-17   -3.482385E-18   -4.477930E-19   -3.475154E-20   -2.014134E-21
        -8.101070E-23   -2.322221E-24   -4.849777E-26   -7.395344E-28   -8.008819E-30   -5.529933E-32   -1.197185E-34    2.236861E-36    3.127933E-38    2.126020E-40
         8.505871E-43
   4     2.208086E-40    3.045567E-38    2.015097E-36   -1.422055E-34   -5.793876E-32   -8.543233E-30   -8.277688E-28   -5.823150E-26   -3.057629E-24   -1.201153E-22
        -3.484540E-21   -7.269104E-20   -1.062445E-18   -1.246953E-17   -8.505536E-17   -6.093106E-16   -8.505378E-17   -1.246853E-17   -1.062147E-18   -7.262580E-20
        -3.476369E-21   -1.195259E-22   -3.030979E-24   -5.741437E-26   -8.098224E-28   -8.251245E-30   -5.436166E-32   -1.092206E-34    2.239013E-36    3.150502E-38
         2.235959E-40
   5     3.086496E-38    1.898270E-36   -1.517580E-34   -5.793876E-32   -8.640636E-30   -8.678427E-28   -6.451531E-26   -3.643469E-24   -1.567257E-22   -5.083488E-21
        -1.216894E-19   -2.074391E-18   -2.397066E-17   -3.498726E-16   -3.730521E-15   -1.832554E-14   -3.730462E-15   -3.498529E-16   -2.396562E-17   -2.072858E-18
        -1.214449E-19   -5.062207E-21   -1.555868E-22   -3.602440E-24   -6.345118E-26   -8.471092E-28   -8.329671E-30   -5.431063E-32   -1.189412E-34    2.122988E-36
         3.195597E-38
   6     1.638074E-36   -1.806926E-34   -5.860661E-32   -8.543233E-30   -8.678427E-28   -6.675397E-26   -3.974702E-24   -1.833307E-22   -6.484467E-21   -1.726466E-19
        -3.359320E-18   -4.552768E-17   -9.766753E-16   -1.546048E-14   -1.005876E-13   -3.667709E-13   -1.005864E-13   -1.545991E-14   -9.765589E-16   -4.550315E-17
        -3.353815E-18   -1.720345E-19   -6.445066E-21   -1.816518E-22   -3.923571E-24   -6.557767E-26   -8.467130E-28   -8.241410E-30   -5.515358E-32   -1.492214E-34
         1.861005E-36
   7    -2.306567E-34   -5.986165E-32   -8.257541E-30   -8.277688E-28   -6.451531E-26   -3.974702E-24   -1.931138E-22   -7.313840E-21   -2.122427E-19   -4.614366E-18
        -7.291540E-17   -2.007979E-15   -4.067614E-14   -3.243685E-13   -1.391400E-12    5.140731E-12   -1.391401E-12   -3.243628E-13   -4.067442E-14   -2.007638E-15
        -7.282835E-17   -4.601349E-18   -2.111849E-19   -7.259912E-21   -1.911728E-22   -3.922297E-24   -6.340397E-26   -8.087594E-28   -7.991402E-30   -5.679559E-32
        -2.016111E-34
   8    -6.201596E-32   -7.801627E-30   -7.530897E-28   -5.823150E-26   -3.643469E-24   -1.833307E-22   -7.313840E-21   -2.273109E-19   -5.408954E-18   -9.694841E-17
        -3.177269E-15   -7.634260E-14   -7.500472E-13   -1.264150E-12    1.205373E-10    1.748924E-09    1.205369E-10   -1.264228E-12   -7.500267E-13   -7.634543E-14
        -3.176380E-15   -9.675673E-17   -5.388605E-18   -2.260146E-19   -7.258166E-21   -1.815548E-22   -3.599267E-24   -5.733894E-26   -7.381328E-28   -7.590886E-30
        -5.948324E-32
   9    -7.267118E-30   -6.526661E-28   -4.901965E-26   -3.057629E-24   -1.567257E-22   -6.484467E-21   -2.122427E-19   -5.408954E-18   -1.066627E-16   -3.981962E-15
        -1.087104E-13   -1.228503E-12    4.494669E-12    7.428480E-10    2.447547E-08    3.792889E-07    2.447547E-08    7.428463E-10    4.494480E-12   -1.228441E-12
        -1.087225E-13   -3.980466E-15   -1.064044E-16   -5.387731E-18   -2.111051E-19   -6.441111E-21   -1.554504E-22   -3.027396E-24   -4.842181E-26   -6.425943E-28
        -7.118724E-30
  10    -5.418180E-28   -3.823067E-26   -2.335775E-24   -1.201153E-22   -5.083488E-21   -1.726466E-19   -4.614366E-18   -9.694841E-17   -3.981962E-15   -1.218545E-13
        -1.541620E-12    1.611003E-11    2.337458E-09    1.318411E-07    4.611076E-06    7.010573E-05    4.611076E-06    1.318412E-07    2.337452E-09    1.611048E-11
        -1.541520E-12   -1.218750E-13   -3.980399E-15   -9.673676E-17   -4.599634E-18   -1.719399E-19   -5.058544E-21   -1.194161E-22   -2.319552E-24   -3.790877E-26
        -5.361490E-28
  11    -2.740059E-26   -1.592350E-24   -8.123270E-23   -3.484540E-21   -1.216894E-19   -3.359320E-18   -7.291540E-17   -3.177269E-15   -1.087104E-13   -1.541620E-12
         2.272713E-11    4.093284E-09    3.414605E-07    1.964499E-05    6.582743E-04    9.451748E-03    6.582743E-04    1.964499E-05    3.414606E-07    4.093264E-09
         2.272867E-11   -1.541518E-12   -1.087262E-13   -3.176273E-15   -7.281095E-17   -3.352625E-18   -1.213884E-19   -3.474383E-21   -8.095446E-23   -1.585895E-24
        -2.726709E-26
  12    -9.313170E-25   -4.629390E-23   -2.016256E-21   -7.269104E-20   -2.074391E-18   -4.552768E-17   -2.007979E-15   -7.634260E-14   -1.228503E-12    1.611003E-11
         4.093284E-09    4.630934E-07    3.866480E-05    2.069277E-03    6.197348E-02    0.721058        6.197348E-02    2.069277E-03    3.866480E-05    4.630936E-07
         4.093262E-09    1.611081E-11   -1.228434E-12   -7.634787E-14   -2.007577E-15   -4.549670E-17   -2.072434E-18   -7.260699E-20   -2.013503E-21   -4.621911E-23
        -9.295237E-25
  13    -2.052254E-23   -9.097005E-22   -3.476340E-20   -1.062445E-18   -2.397066E-17   -9.766753E-16   -4.067614E-14   -7.500472E-13    4.494669E-12    2.337458E-09
         3.414605E-07    3.866480E-05    2.919260E-03    0.131425         2.62378         15.6098         2.62378        0.131425        2.919260E-03    3.866480E-05
         3.414606E-07    2.337450E-09    4.494551E-12   -7.500241E-13   -4.067447E-14   -9.765348E-16   -2.396432E-17   -1.062065E-18   -3.474816E-20   -9.092225E-22
        -2.050951E-23
  14    -3.149940E-22   -1.270855E-20   -4.478379E-19   -1.246953E-17   -3.498726E-16   -1.546048E-14   -3.243685E-13   -1.264150E-12    7.428480E-10    1.318411E-07
         1.964499E-05    2.069277E-03    0.131425         3.56155         28.2314         67.2518         28.2314         3.56155        0.131425        2.069277E-03
         1.964499E-05    1.318412E-07    7.428460E-10   -1.264236E-12   -3.243621E-13   -1.545984E-14   -3.498493E-16   -1.246834E-17   -4.477838E-19   -1.270670E-20
        -3.149388E-22
  15    -3.304605E-21   -1.156370E-19   -3.482468E-18   -8.505536E-17   -3.730521E-15   -1.005876E-13   -1.391400E-12    1.205373E-10    2.447547E-08    4.611076E-06
         6.582743E-04    6.197348E-02     2.62378         28.2314         76.8288         96.5309         76.8288         28.2314         2.62378        6.197348E-02
         6.582743E-04    4.611076E-06    2.447547E-08    1.205369E-10   -1.391401E-12   -1.005863E-13   -3.730454E-15   -8.505359E-17   -3.482375E-18   -1.156334E-19
        -3.304493E-21
  16    -2.710123E-20   -7.652250E-19   -1.663494E-17   -6.093106E-16   -1.832554E-14   -3.667709E-13    5.140731E-12    1.748924E-09    3.792889E-07    7.010573E-05
         9.451748E-03    0.721058         15.6098         67.2518         96.5309         99.9992         96.5309         67.2518         15.6098        0.721058    
         9.451748E-03    7.010573E-05    3.792889E-07    1.748924E-09    5.140731E-12   -3.667708E-13   -1.832554E-14   -6.093107E-16   -1.663494E-17   -7.652250E-19
        -2.710123E-20
  17    -3.304505E-21   -1.156338E-19   -3.482385E-18   -8.505378E-17   -3.730462E-15   -1.005864E-13   -1.391401E-12    1.205369E-10    2.447547E-08    4.611076E-06
         6.582743E-04    6.197348E-02     2.62378         28.2314         76.8288         96.5309         76.8288         28.2314         2.62378        6.197348E-02
         6.582743E-04    4.611076E-06    2.447547E-08    1.205373E-10   -1.391400E-12   -1.005876E-13   -3.730521E-15   -8.505536E-17   -3.482468E-18   -1.156370E-19
        -3.304605E-21
  18    -3.149488E-22   -1.270702E-20   -4.477930E-19   -1.246853E-17   -3.498529E-16   -1.545991E-14   -3.243628E-13   -1.264228E-12    7.428463E-10    1.318412E-07
         1.964499E-05    2.069277E-03    0.131425         3.56155         28.2314         67.2518         28.2314         3.56155        0.131425        2.069277E-03
         1.964499E-05    1.318411E-07    7.428480E-10   -1.264150E-12   -3.243685E-13   -1.546048E-14   -3.498726E-16   -1.246953E-17   -4.478379E-19   -1.270855E-20
        -3.149940E-22
  19    -2.051257E-23   -9.093316E-22   -3.475154E-20   -1.062147E-18   -2.396562E-17   -9.765589E-16   -4.067442E-14   -7.500267E-13    4.494480E-12    2.337452E-09
         3.414606E-07    3.866480E-05    2.919260E-03    0.131425         2.62378         15.6098         2.62378        0.131425        2.919260E-03    3.866480E-05
         3.414605E-07    2.337458E-09    4.494669E-12   -7.500472E-13   -4.067614E-14   -9.766753E-16   -2.397066E-17   -1.062445E-18   -3.476340E-20   -9.097005E-22
        -2.052254E-23
  20    -9.299533E-25   -4.623667E-23   -2.014134E-21   -7.262580E-20   -2.072858E-18   -4.550315E-17   -2.007638E-15   -7.634543E-14   -1.228441E-12    1.611048E-11
         4.093264E-09    4.630936E-07    3.866480E-05    2.069277E-03    6.197348E-02    0.721058        6.197348E-02    2.069277E-03    3.866480E-05    4.630934E-07
         4.093284E-09    1.611003E-11   -1.228503E-12   -7.634260E-14   -2.007979E-15   -4.552768E-17   -2.074391E-18   -7.269104E-20   -2.016256E-21   -4.629390E-23
        -9.313170E-25
  21    -2.729535E-26   -1.587234E-24   -8.101070E-23   -3.476369E-21   -1.214449E-19   -3.353815E-18   -7.282835E-17   -3.176380E-15   -1.087225E-13   -1.541520E-12
         2.272867E-11    4.093262E-09    3.414606E-07    1.964499E-05    6.582743E-04    9.451748E-03    6.582743E-04    1.964499E-05    3.414605E-07    4.093284E-09
         2.272713E-11   -1.541620E-12   -1.087104E-13   -3.177269E-15   -7.291540E-17   -3.359320E-18   -1.216894E-19   -3.484540E-21   -8.123270E-23   -1.592350E-24
        -2.740059E-26
  22    -5.371361E-28   -3.796354E-26   -2.322221E-24   -1.195259E-22   -5.062207E-21   -1.720345E-19   -4.601349E-18   -9.675673E-17   -3.980466E-15   -1.218750E-13
        -1.541518E-12    1.611081E-11    2.337450E-09    1.318412E-07    4.611076E-06    7.010573E-05    4.611076E-06    1.318411E-07    2.337458E-09    1.611003E-11
        -1.541620E-12   -1.218545E-13   -3.981962E-15   -9.694841E-17   -4.614366E-18   -1.726466E-19   -5.083488E-21   -1.201153E-22   -2.335775E-24   -3.823067E-26
        -5.418180E-28
  23    -7.139000E-30   -6.439344E-28   -4.849777E-26   -3.030979E-24   -1.555868E-22   -6.445066E-21   -2.111849E-19   -5.388605E-18   -1.064044E-16   -3.980399E-15
        -1.087262E-13   -1.228434E-12    4.494551E-12    7.428460E-10    2.447547E-08    3.792889E-07    2.447547E-08    7.428480E-10    4.494669E-12   -1.228503E-12
        -1.087104E-13   -3.981962E-15   -1.066627E-16   -5.408954E-18   -2.122427E-19   -6.484467E-21   -1.567257E-22   -3.057629E-24   -4.901965E-26   -6.526661E-28
        -7.267118E-30
  24    -5.974354E-32   -7.611915E-30   -7.395344E-28   -5.741437E-26   -3.602440E-24   -1.816518E-22   -7.259912E-21   -2.260146E-19   -5.387731E-18   -9.673676E-17
        -3.176273E-15   -7.634787E-14   -7.500241E-13   -1.264236E-12    1.205369E-10    1.748924E-09    1.205373E-10   -1.264150E-12   -7.500472E-13   -7.634260E-14
        -3.177269E-15   -9.694841E-17   -5.408954E-18   -2.273109E-19   -7.313840E-21   -1.833307E-22   -3.643469E-24   -5.823150E-26   -7.530897E-28   -7.801627E-30
        -6.201596E-32
  25    -2.037496E-34   -5.701442E-32   -8.008819E-30   -8.098224E-28   -6.345118E-26   -3.923571E-24   -1.911728E-22   -7.258166E-21   -2.111051E-19   -4.599634E-18
        -7.281095E-17   -2.007577E-15   -4.067447E-14   -3.243621E-13   -1.391401E-12    5.140731E-12   -1.391400E-12   -3.243685E-13   -4.067614E-14   -2.007979E-15
        -7.291540E-17   -4.614366E-18   -2.122427E-19   -7.313840E-21   -1.931138E-22   -3.974702E-24   -6.451531E-26   -8.277688E-28   -8.257541E-30   -5.986165E-32
        -2.306567E-34
  26     1.850016E-36   -1.507276E-34   -5.529933E-32   -8.251245E-30   -8.471092E-28   -6.557767E-26   -3.922297E-24   -1.815548E-22   -6.441111E-21   -1.719399E-19
        -3.352625E-18   -4.549670E-17   -9.765348E-16   -1.545984E-14   -1.005863E-13   -3.667708E-13   -1.005876E-13   -1.546048E-14   -9.766753E-16   -4.552768E-17
        -3.359320E-18   -1.726466E-19   -6.484467E-21   -1.833307E-22   -3.974702E-24   -6.675397E-26   -8.678427E-28   -8.543233E-30   -5.860661E-32   -1.806926E-34
         1.638074E-36
  27     3.192385E-38    2.116474E-36   -1.197185E-34   -5.436166E-32   -8.329671E-30   -8.467130E-28   -6.340397E-26   -3.599267E-24   -1.554504E-22   -5.058544E-21
        -1.213884E-19   -2.072434E-18   -2.396432E-17   -3.498493E-16   -3.730454E-15   -1.832554E-14   -3.730521E-15   -3.498726E-16   -2.397066E-17   -2.074391E-18
        -1.216894E-19   -5.083488E-21   -1.567257E-22   -3.643469E-24   -6.451531E-26   -8.678427E-28   -8.640636E-30   -5.793876E-32   -1.517580E-34    1.898270E-36
         3.086496E-38
  28     2.235590E-40    3.148979E-38    2.236861E-36   -1.092206E-34   -5.431063E-32   -8.241410E-30   -8.087594E-28   -5.733894E-26   -3.027396E-24   -1.194161E-22
        -3.474383E-21   -7.260699E-20   -1.062065E-18   -1.246834E-17   -8.505359E-17   -6.093107E-16   -8.505536E-17   -1.246953E-17   -1.062445E-18   -7.269104E-20
        -3.484540E-21   -1.201153E-22   -3.057629E-24   -5.823150E-26   -8.277688E-28   -8.543233E-30   -5.793876E-32   -1.422055E-34    2.015097E-36    3.045567E-38
         2.208086E-40
  29     8.506069E-43    2.125905E-40    3.127933E-38    2.239013E-36   -1.189412E-34   -5.515358E-32   -7.991402E-30   -7.381328E-28   -4.842181E-26   -2.319552E-24
        -8.095446E-23   -2.013503E-21   -3.474816E-20   -4.477838E-19   -3.482375E-18   -1.663494E-17   -3.482468E-18   -4.478379E-19   -3.476340E-20   -2.016256E-21
        -8.123270E-23   -2.335775E-24   -4.901965E-26   -7.530897E-28   -8.257541E-30   -5.860661E-32   -1.517580E-34    2.015097E-36    3.025063E-38    2.099785E-40
         8.503514E-43
  30     1.487577E-45    8.065371E-43    2.126020E-40    3.150502E-38    2.122988E-36   -1.492214E-34   -5.679559E-32   -7.590886E-30   -6.425943E-28   -3.790877E-26
        -1.585895E-24   -4.621911E-23   -9.092225E-22   -1.270670E-20   -1.156334E-19   -7.652250E-19   -1.156370E-19   -1.270855E-20   -9.097005E-22   -4.629390E-23
        -1.592350E-24   -3.823067E-26   -6.526661E-28   -7.801627E-30   -5.986165E-32   -1.806926E-34    1.898270E-36    3.045567E-38    2.099785E-40    8.063096E-43
         1.500768E-45
  31      0.00000        1.487560E-45    8.505871E-43    2.235959E-40    3.195597E-38    1.861005E-36   -2.016111E-34   -5.948324E-32   -7.118724E-30   -5.361490E-28
        -2.726709E-26   -9.295237E-25   -2.050951E-23   -3.149388E-22   -3.304493E-21   -2.710123E-20   -3.304605E-21   -3.149940E-22   -2.052254E-23   -9.313170E-25
        -2.740059E-26   -5.418180E-28   -7.267118E-30   -6.201596E-32   -2.306567E-34    1.638074E-36    3.086496E-38    2.208086E-40    8.503514E-43    1.500768E-45
          0.00000    

 CONCENTRATION WILL BE SAVED ON UNIT 1030 AT END OF TIME STEP   36, STRESS PERIOD    1


  MASS BUDGET FOR ENTIRE MODEL AT END OF TIME STEP   36, STRESS PERIOD   1
  ---------------------------------------------------------------------------------------------------

     CUMULATIVE MASS      M       RATES FOR THIS TIME STEP      M/T          PACKAGE NAME    
     ------------------                 ------------------------                     ----------------

           IN:                                      IN:
           ---                                      ---
     STORAGE-AQUEOUS =       5.0344E-03       STORAGE-AQUEOUS =       8.9354E-07     MST                              
                 WEL =  7884000000.0000                   WEL =     8640000.0000     SSM_WEL-1                        
                 CHD =           0.0000                   CHD =           0.0000     SSM_CHD-1                        

            TOTAL IN =  7884000000.0050              TOTAL IN =     8640000.0000

          OUT:                                     OUT:
          ----                                     ----
     STORAGE-AQUEOUS =  7884000000.0051       STORAGE-AQUEOUS =     8640000.0000     MST                              
                 WEL =           0.0000                   WEL =           0.0000     SSM_WEL-1                        
                 CHD =       7.5562E-18                   CHD =       7.4043E-33     SSM_CHD-1                        

           TOTAL OUT =  7884000000.0051             TOTAL OUT =     8640000.0000

            IN - OUT =      -2.3842E-05              IN - OUT =      -1.3225E-07

 PERCENT DISCREPANCY =          -0.00     PERCENT DISCREPANCY =          -0.00




         TIME SUMMARY AT END OF TIME STEP   36 IN STRESS PERIOD    1
                    SECONDS     MINUTES      HOURS       DAYS        YEARS
                    -----------------------------------------------------------
   TIME STEP LENGTH 2.19000E+06  36500.      608.33      25.347     6.93969E-02
 STRESS PERIOD TIME 7.88400E+07 1.31400E+06  21900.      912.50      2.4983    
         TOTAL TIME 7.88400E+07 1.31400E+06  21900.      912.50      2.4983    


end timestep


start timestep kper="2" kstp="1" mode="normal"


 END OF FILE DETECTED IN OUTPUT CONTROL.
 CURRENT OUTPUT CONTROL SETTINGS WILL BE 
 REPEATED UNTIL THE END OF THE SIMULATION.

 OUTPUT CONTROL FOR STRESS PERIOD 2 IS REPEATED USING SETTINGS FROM A PREVIOUS STRESS PERIOD.
 UBDSV1 SAVING  STORAGE-AQUEOUS ON UNIT   1029 AT TIME STEP      1, STRESS PERIOD      2
 UBDSV1 SAVING     FLOW-JA-FACE ON UNIT   1029 AT TIME STEP      1, STRESS PERIOD      2
 UBDSV06 SAVING  SOURCE-SINK MIX IN MODEL GWT_P06-MF6      PACKAGE GWT_P06-MF6     CONNECTED TO MODEL GWT_P06-MF6      PACKAGE SSM              ON UNIT   1029 AT TIME STEP      1, STRESS PERIOD      2
1
  CONCENTRATION IN LAYER   1 AT END OF TIME STEP   1 IN STRESS PERIOD    2
  ---------------------------------------------------------------------------

                1               2               3               4               5               6               7               8               9              10
               11              12              13              14              15              16              17              18              19              20
               21              22              23              24              25              26              27              28              29              30
               31
 ................................................................................................................................................................................................................................................................................................................................................................................................................................................................................................................
   1      0.00000        1.612773E-45    9.015119E-43    2.308757E-40    3.150748E-38    1.501280E-36   -2.721572E-34   -6.764222E-32   -7.750446E-30   -5.700375E-28
        -2.852828E-26   -9.616659E-25   -2.108170E-23   -3.222187E-22   -3.366546E-21   -2.736891E-20   -3.366444E-21   -3.221729E-22   -2.107156E-23   -9.602748E-25
        -2.842040E-26   -5.652077E-28   -7.617261E-30   -6.525880E-32   -2.436448E-34    1.728716E-36    3.266414E-38    2.340016E-40    9.024687E-43    1.599701E-45
          0.00000    
   2     1.612773E-45    8.441764E-43    2.177378E-40    3.104734E-38    1.801685E-36   -2.155870E-34   -6.515044E-32   -8.313069E-30   -6.870322E-28   -3.986900E-26
        -1.647339E-24   -4.756661E-23   -9.302235E-22   -1.294657E-20   -1.173224E-19   -7.696874E-19   -1.173192E-19   -1.294503E-20   -9.298496E-22   -4.750844E-23
        -1.642114E-24   -3.959475E-26   -6.780118E-28   -8.115759E-30   -6.216804E-32   -1.839593E-34    2.034037E-36    3.216237E-38    2.206371E-40    8.449222E-43
         1.599683E-45
   3     9.015119E-43    2.177378E-40    3.080941E-38    1.937193E-36   -1.823974E-34   -6.358520E-32   -8.781538E-30   -7.921288E-28   -5.113105E-26   -2.418642E-24
        -8.355217E-23   -2.061361E-21   -3.538255E-20   -4.540220E-19   -3.519104E-18   -1.680449E-17   -3.519021E-18   -4.539768E-19   -3.537057E-20   -2.059212E-21
        -8.332638E-23   -2.404785E-24   -5.059463E-26   -7.781174E-28   -8.522989E-30   -6.012764E-32   -1.486998E-34    2.172152E-36    3.191265E-38    2.206508E-40
         9.024560E-43
   4     2.308757E-40    3.104734E-38    1.937193E-36   -1.713260E-34   -6.271472E-32   -9.068025E-30   -8.696227E-28   -6.070789E-26   -3.166336E-24   -1.236066E-22
        -3.564301E-21   -7.393776E-20   -1.076229E-18   -1.258091E-17   -8.669874E-17   -6.130952E-16   -8.669715E-17   -1.257991E-17   -1.075930E-18   -7.387196E-20
        -3.556025E-21   -1.230065E-22   -3.139067E-24   -5.986748E-26   -8.510732E-28   -8.764743E-30   -5.898030E-32   -1.366828E-34    2.174467E-36    3.217925E-38
         2.340475E-40
   5     3.150748E-38    1.801685E-36   -1.823974E-34   -6.271472E-32   -9.164223E-30   -9.109432E-28   -6.721709E-26   -3.771919E-24   -1.612892E-22   -5.201524E-21
        -1.238193E-19   -2.100028E-18   -2.448359E-17   -3.575320E-16   -3.757307E-15   -1.832152E-14   -3.757248E-15   -3.575121E-16   -2.447853E-17   -2.098490E-18
        -1.235728E-19   -5.179953E-21   -1.601289E-22   -3.729910E-24   -6.612238E-26   -8.895162E-28   -8.841330E-30   -5.892664E-32   -1.478738E-34    2.041088E-36
         3.270039E-38
   6     1.501280E-36   -2.155870E-34   -6.358520E-32   -9.068025E-30   -9.109432E-28   -6.953110E-26   -4.113782E-24   -1.886483E-22   -6.635794E-21   -1.757394E-19
        -3.403634E-18   -4.678606E-17   -9.993271E-16   -1.551585E-14   -1.002698E-13   -3.586903E-13   -1.002686E-13   -1.551528E-14   -9.992109E-16   -4.676161E-17
        -3.398109E-18   -1.751220E-19   -6.595831E-21   -1.869369E-22   -4.061413E-24   -6.832090E-26   -8.891050E-28   -8.754471E-30   -5.997413E-32   -1.823520E-34
         1.740727E-36
   7    -2.721572E-34   -6.515044E-32   -8.781538E-30   -8.696227E-28   -6.721709E-26   -4.113782E-24   -1.987029E-22   -7.484676E-21   -2.160991E-19   -4.678526E-18
        -7.516503E-17   -2.054765E-15   -4.074993E-14   -3.220996E-13   -1.254502E-12    6.773110E-12   -1.254503E-12   -3.220934E-13   -4.074823E-14   -2.054430E-15
        -7.507859E-17   -4.665458E-18   -2.150316E-19   -7.429959E-21   -1.967241E-22   -4.060105E-24   -6.607366E-26   -8.499700E-28   -8.504786E-30   -6.193709E-32
        -2.413524E-34
   8    -6.764222E-32   -8.313069E-30   -7.921288E-28   -6.070789E-26   -3.771919E-24   -1.886483E-22   -7.484676E-21   -2.314601E-19   -5.486114E-18   -1.000809E-16
        -3.249818E-15   -7.636624E-14   -7.356981E-13   -3.342374E-13    1.468196E-10    2.129570E-09    1.468192E-10   -3.343163E-13   -7.356780E-13   -7.636895E-14
        -3.248952E-15   -9.989086E-17   -5.465682E-18   -2.301516E-19   -7.428186E-21   -1.868379E-22   -3.726654E-24   -5.978967E-26   -7.766632E-28   -8.093776E-30
        -6.498378E-32
   9    -7.750446E-30   -6.870322E-28   -5.113105E-26   -3.166336E-24   -1.612892E-22   -6.635794E-21   -2.160991E-19   -5.486114E-18   -1.101545E-16   -4.070806E-15
        -1.086109E-13   -1.187623E-12    7.812173E-12    9.099594E-10    2.996182E-08    4.552612E-07    2.996183E-08    9.099579E-10    7.811982E-12   -1.187562E-12
        -1.086227E-13   -4.069356E-15   -1.098986E-16   -5.464804E-18   -2.149510E-19   -6.591817E-21   -1.599897E-22   -3.135394E-24   -5.051637E-26   -6.766229E-28
        -7.596091E-30
  10    -5.700375E-28   -3.986900E-26   -2.418642E-24   -1.236066E-22   -5.201524E-21   -1.757394E-19   -4.678526E-18   -1.000809E-16   -4.070806E-15   -1.216868E-13
        -1.475027E-12    2.309628E-11    2.863265E-09    1.600044E-07    5.470250E-06    8.088339E-05    5.470250E-06    1.600044E-07    2.863259E-09    2.309670E-11
        -1.474928E-12   -1.217067E-13   -4.069292E-15   -9.987112E-17   -4.663736E-18   -1.750265E-19   -5.176238E-21   -1.228947E-22   -2.402054E-24   -3.953843E-26
        -5.641872E-28
  11    -2.852828E-26   -1.647339E-24   -8.355217E-23   -3.564301E-21   -1.238193E-19   -3.403634E-18   -7.516503E-17   -3.249818E-15   -1.086109E-13   -1.475027E-12
         3.165154E-11    5.002048E-09    4.109131E-07    2.298717E-05    7.449715E-04    1.024533E-02    7.449715E-04    2.298717E-05    4.109132E-07    5.002029E-09
         3.165300E-11   -1.474925E-12   -1.086263E-13   -3.248851E-15   -7.506137E-17   -3.396916E-18   -1.235158E-19   -3.554012E-21   -8.326917E-23   -1.640747E-24
        -2.839142E-26
  12    -9.616659E-25   -4.756661E-23   -2.061361E-21   -7.393776E-20   -2.100028E-18   -4.678606E-17   -2.054765E-15   -7.636624E-14   -1.187623E-12    2.309628E-11
         5.002048E-09    5.558750E-07    4.483529E-05    2.302879E-03    6.535526E-02    0.722620        6.535526E-02    2.302879E-03    4.483529E-05    5.558751E-07
         5.002027E-09    2.309701E-11   -1.187555E-12   -7.637133E-14   -2.054372E-15   -4.675520E-17   -2.098064E-18   -7.385301E-20   -2.058573E-21   -4.749061E-23
        -9.598369E-25
  13    -2.108170E-23   -9.302235E-22   -3.538255E-20   -1.076229E-18   -2.448359E-17   -9.993271E-16   -4.074993E-14   -7.356981E-13    7.812173E-12    2.863265E-09
         4.109131E-07    4.483529E-05    3.234455E-03    0.136687         2.58887         15.0618         2.58887        0.136687        3.234455E-03    4.483529E-05
         4.109132E-07    2.863257E-09    7.812051E-12   -7.356755E-13   -4.074827E-14   -9.991871E-16   -2.447722E-17   -1.075848E-18   -3.536717E-20   -9.297392E-22
        -2.106846E-23
  14    -3.222187E-22   -1.294657E-20   -4.540220E-19   -1.258091E-17   -3.575320E-16   -1.551585E-14   -3.220996E-13   -3.342374E-13    9.099594E-10    1.600044E-07
         2.298717E-05    2.302879E-03    0.136687         3.49010         27.0866         64.8001         27.0866         3.49010        0.136687        2.302879E-03
         2.298717E-05    1.600044E-07    9.099575E-10   -3.343241E-13   -3.220927E-13   -1.551521E-14   -3.575085E-16   -1.257971E-17   -4.539675E-19   -1.294471E-20
        -3.221628E-22
  15    -3.366546E-21   -1.173224E-19   -3.519104E-18   -8.669874E-17   -3.757307E-15   -1.002698E-13   -1.254502E-12    1.468196E-10    2.996182E-08    5.470250E-06
         7.449715E-04    6.535526E-02     2.58887         27.0866         74.3509         94.9389         74.3509         27.0866         2.58887        6.535526E-02
         7.449715E-04    5.470250E-06    2.996183E-08    1.468192E-10   -1.254503E-12   -1.002685E-13   -3.757240E-15   -8.669695E-17   -3.519011E-18   -1.173188E-19
        -3.366432E-21
  16    -2.736891E-20   -7.696874E-19   -1.680449E-17   -6.130952E-16   -1.832152E-14   -3.586903E-13    6.773110E-12    2.129570E-09    4.552612E-07    8.088339E-05
         1.024533E-02    0.722620         15.0618         64.8001         94.9389         99.7461         94.9389         64.8001         15.0618        0.722620    
         1.024533E-02    8.088339E-05    4.552612E-07    2.129570E-09    6.773110E-12   -3.586903E-13   -1.832152E-14   -6.130952E-16   -1.680449E-17   -7.696874E-19
        -2.736891E-20
  17    -3.366444E-21   -1.173192E-19   -3.519021E-18   -8.669715E-17   -3.757248E-15   -1.002686E-13   -1.254503E-12    1.468192E-10    2.996183E-08    5.470250E-06
         7.449715E-04    6.535526E-02     2.58887         27.0866         74.3509         94.9389         74.3509         27.0866         2.58887        6.535526E-02
         7.449715E-04    5.470250E-06    2.996182E-08    1.468196E-10   -1.254502E-12   -1.002698E-13   -3.757307E-15   -8.669874E-17   -3.519104E-18   -1.173224E-19
        -3.366546E-21
  18    -3.221729E-22   -1.294503E-20   -4.539768E-19   -1.257991E-17   -3.575121E-16   -1.551528E-14   -3.220934E-13   -3.343163E-13    9.099579E-10    1.600044E-07
         2.298717E-05    2.302879E-03    0.136687         3.49010         27.0866         64.8001         27.0866         3.49010        0.136687        2.302879E-03
         2.298717E-05    1.600044E-07    9.099594E-10   -3.342372E-13   -3.220996E-13   -1.551585E-14   -3.575320E-16   -1.258091E-17   -4.540220E-19   -1.294657E-20
        -3.222187E-22
  19    -2.107156E-23   -9.298496E-22   -3.537057E-20   -1.075930E-18   -2.447853E-17   -9.992109E-16   -4.074823E-14   -7.356780E-13    7.811982E-12    2.863259E-09
         4.109132E-07    4.483529E-05    3.234455E-03    0.136687         2.58887         15.0618         2.58887        0.136687        3.234455E-03    4.483529E-05
         4.109131E-07    2.863265E-09    7.812173E-12   -7.356981E-13   -4.074993E-14   -9.993270E-16   -2.448359E-17   -1.076229E-18   -3.538255E-20   -9.302235E-22
        -2.108170E-23
  20    -9.602748E-25   -4.750844E-23   -2.059212E-21   -7.387196E-20   -2.098490E-18   -4.676161E-17   -2.054430E-15   -7.636895E-14   -1.187562E-12    2.309670E-11
         5.002029E-09    5.558751E-07    4.483529E-05    2.302879E-03    6.535526E-02    0.722620        6.535526E-02    2.302879E-03    4.483529E-05    5.558750E-07
         5.002048E-09    2.309628E-11   -1.187623E-12   -7.636624E-14   -2.054765E-15   -4.678606E-17   -2.100028E-18   -7.393776E-20   -2.061361E-21   -4.756661E-23
        -9.616659E-25
  21    -2.842040E-26   -1.642114E-24   -8.332638E-23   -3.556025E-21   -1.235728E-19   -3.398109E-18   -7.507859E-17   -3.248952E-15   -1.086227E-13   -1.474928E-12
         3.165300E-11    5.002027E-09    4.109132E-07    2.298717E-05    7.449715E-04    1.024533E-02    7.449715E-04    2.298717E-05    4.109131E-07    5.002048E-09
         3.165154E-11   -1.475027E-12   -1.086109E-13   -3.249818E-15   -7.516503E-17   -3.403634E-18   -1.238193E-19   -3.564301E-21   -8.355217E-23   -1.647339E-24
        -2.852828E-26
  22    -5.652077E-28   -3.959475E-26   -2.404785E-24   -1.230065E-22   -5.179953E-21   -1.751220E-19   -4.665458E-18   -9.989086E-17   -4.069356E-15   -1.217067E-13
        -1.474925E-12    2.309701E-11    2.863257E-09    1.600044E-07    5.470250E-06    8.088339E-05    5.470250E-06    1.600044E-07    2.863265E-09    2.309628E-11
        -1.475027E-12   -1.216868E-13   -4.070806E-15   -1.000809E-16   -4.678526E-18   -1.757394E-19   -5.201524E-21   -1.236066E-22   -2.418642E-24   -3.986900E-26
        -5.700375E-28
  23    -7.617261E-30   -6.780118E-28   -5.059463E-26   -3.139067E-24   -1.601289E-22   -6.595831E-21   -2.150316E-19   -5.465682E-18   -1.098986E-16   -4.069292E-15
        -1.086263E-13   -1.187555E-12    7.812051E-12    9.099575E-10    2.996183E-08    4.552612E-07    2.996182E-08    9.099594E-10    7.812173E-12   -1.187623E-12
        -1.086109E-13   -4.070806E-15   -1.101545E-16   -5.486114E-18   -2.160991E-19   -6.635794E-21   -1.612892E-22   -3.166336E-24   -5.113105E-26   -6.870322E-28
        -7.750446E-30
  24    -6.525880E-32   -8.115759E-30   -7.781174E-28   -5.986748E-26   -3.729910E-24   -1.869369E-22   -7.429959E-21   -2.301516E-19   -5.464804E-18   -9.987112E-17
        -3.248851E-15   -7.637133E-14   -7.356755E-13   -3.343241E-13    1.468192E-10    2.129570E-09    1.468196E-10   -3.342372E-13   -7.356981E-13   -7.636624E-14
        -3.249818E-15   -1.000809E-16   -5.486114E-18   -2.314601E-19   -7.484676E-21   -1.886483E-22   -3.771919E-24   -6.070789E-26   -7.921288E-28   -8.313069E-30
        -6.764222E-32
  25    -2.436448E-34   -6.216804E-32   -8.522989E-30   -8.510732E-28   -6.612238E-26   -4.061413E-24   -1.967241E-22   -7.428186E-21   -2.149510E-19   -4.663736E-18
        -7.506137E-17   -2.054372E-15   -4.074827E-14   -3.220927E-13   -1.254503E-12    6.773110E-12   -1.254502E-12   -3.220996E-13   -4.074993E-14   -2.054765E-15
        -7.516503E-17   -4.678526E-18   -2.160991E-19   -7.484676E-21   -1.987029E-22   -4.113782E-24   -6.721709E-26   -8.696227E-28   -8.781538E-30   -6.515044E-32
        -2.721572E-34
  26     1.728716E-36   -1.839593E-34   -6.012764E-32   -8.764743E-30   -8.895162E-28   -6.832090E-26   -4.060105E-24   -1.868379E-22   -6.591817E-21   -1.750265E-19
        -3.396916E-18   -4.675520E-17   -9.991871E-16   -1.551521E-14   -1.002685E-13   -3.586903E-13   -1.002698E-13   -1.551585E-14   -9.993270E-16   -4.678606E-17
        -3.403634E-18   -1.757394E-19   -6.635794E-21   -1.886483E-22   -4.113782E-24   -6.953110E-26   -9.109432E-28   -9.068025E-30   -6.358520E-32   -2.155870E-34
         1.501280E-36
  27     3.266414E-38    2.034037E-36   -1.486998E-34   -5.898030E-32   -8.841330E-30   -8.891050E-28   -6.607366E-26   -3.726654E-24   -1.599897E-22   -5.176238E-21
        -1.235158E-19   -2.098064E-18   -2.447722E-17   -3.575085E-16   -3.757240E-15   -1.832152E-14   -3.757307E-15   -3.575320E-16   -2.448359E-17   -2.100028E-18
        -1.238193E-19   -5.201524E-21   -1.612892E-22   -3.771919E-24   -6.721709E-26   -9.109432E-28   -9.164222E-30   -6.271472E-32   -1.823974E-34    1.801685E-36
         3.150748E-38
  28     2.340016E-40    3.216237E-38    2.172152E-36   -1.366828E-34   -5.892664E-32   -8.754471E-30   -8.499700E-28   -5.978967E-26   -3.135394E-24   -1.228947E-22
        -3.554012E-21   -7.385301E-20   -1.075848E-18   -1.257971E-17   -8.669695E-17   -6.130952E-16   -8.669874E-17   -1.258091E-17   -1.076229E-18   -7.393776E-20
        -3.564301E-21   -1.236066E-22   -3.166336E-24   -6.070789E-26   -8.696227E-28   -9.068025E-30   -6.271472E-32   -1.713260E-34    1.937193E-36    3.104734E-38
         2.308757E-40
  29     9.024687E-43    2.206371E-40    3.191265E-38    2.174467E-36   -1.478738E-34   -5.997413E-32   -8.504786E-30   -7.766632E-28   -5.051637E-26   -2.402054E-24
        -8.326917E-23   -2.058573E-21   -3.536717E-20   -4.539675E-19   -3.519011E-18   -1.680449E-17   -3.519104E-18   -4.540220E-19   -3.538255E-20   -2.061361E-21
        -8.355217E-23   -2.418642E-24   -5.113105E-26   -7.921288E-28   -8.781538E-30   -6.358520E-32   -1.823974E-34    1.937193E-36    3.080941E-38    2.177378E-40
         9.015119E-43
  30     1.599701E-45    8.449222E-43    2.206508E-40    3.217925E-38    2.041088E-36   -1.823520E-34   -6.193709E-32   -8.093776E-30   -6.766229E-28   -3.953843E-26
        -1.640747E-24   -4.749061E-23   -9.297392E-22   -1.294471E-20   -1.173188E-19   -7.696874E-19   -1.173224E-19   -1.294657E-20   -9.302235E-22   -4.756661E-23
        -1.647339E-24   -3.986900E-26   -6.870322E-28   -8.313069E-30   -6.515044E-32   -2.155870E-34    1.801685E-36    3.104734E-38    2.177378E-40    8.441764E-43
         1.612773E-45
  31      0.00000        1.599683E-45    9.024560E-43    2.340475E-40    3.270039E-38    1.740727E-36   -2.413524E-34   -6.498378E-32   -7.596091E-30   -5.641872E-28
        -2.839142E-26   -9.598369E-25   -2.106846E-23   -3.221628E-22   -3.366432E-21   -2.736891E-20   -3.366546E-21   -3.222187E-22   -2.108170E-23   -9.616659E-25
        -2.852828E-26   -5.700375E-28   -7.750446E-30   -6.764222E-32   -2.721572E-34    1.501280E-36    3.150748E-38    2.308757E-40    9.015119E-43    1.612773E-45
          0.00000    

 CONCENTRATION WILL BE SAVED ON UNIT 1030 AT END OF TIME STEP    1, STRESS PERIOD    2


  MASS BUDGET FOR ENTIRE MODEL AT END OF TIME STEP    1, STRESS PERIOD   2
  ---------------------------------------------------------------------------------------------------

     CUMULATIVE MASS      M       RATES FOR THIS TIME STEP      M/T          PACKAGE NAME    
     ------------------                 ------------------------                     ----------------

           IN:                                      IN:
           ---                                      ---
     STORAGE-AQUEOUS =   216907857.5782       STORAGE-AQUEOUS =     8636696.4294     MST                              
                 WEL =  7884000000.0000                   WEL =           0.0000     SSM_WEL-1                        
                 CHD =           0.0000                   CHD =           0.0000     SSM_CHD-1                        

            TOTAL IN =  8100907857.5782              TOTAL IN =     8636696.4294

          OUT:                                     OUT:
          ----                                     ----
     STORAGE-AQUEOUS =  7884467881.7959       STORAGE-AQUEOUS =       18629.8138     MST                              
                 WEL =   216439975.7823                   WEL =     8618066.6156     SSM_WEL-1                        
                 CHD =       7.5562E-18                   CHD =           0.0000     SSM_CHD-1                        

           TOTAL OUT =  8100907857.5783             TOTAL OUT =     8636696.4294

            IN - OUT =      -2.1935E-05              IN - OUT =       8.0094E-08

 PERCENT DISCREPANCY =          -0.00     PERCENT DISCREPANCY =           0.00




         TIME SUMMARY AT END OF TIME STEP    1 IN STRESS PERIOD    2
                    SECONDS     MINUTES      HOURS       DAYS        YEARS
                    -----------------------------------------------------------
   TIME STEP LENGTH 2.16991E+06  36165.      602.75      25.115     6.87602E-02
 STRESS PERIOD TIME 2.16991E+06  36165.      602.75      25.115     6.87602E-02
         TOTAL TIME 8.10099E+07 1.35017E+06  22503.      937.61      2.5670    


end timestep


start timestep kper="2" kstp="2" mode="normal"

 UBDSV1 SAVING  STORAGE-AQUEOUS ON UNIT   1029 AT TIME STEP      2, STRESS PERIOD      2
 UBDSV1 SAVING     FLOW-JA-FACE ON UNIT   1029 AT TIME STEP      2, STRESS PERIOD      2
 UBDSV06 SAVING  SOURCE-SINK MIX IN MODEL GWT_P06-MF6      PACKAGE GWT_P06-MF6     CONNECTED TO MODEL GWT_P06-MF6      PACKAGE SSM              ON UNIT   1029 AT TIME STEP      2, STRESS PERIOD      2
1
  CONCENTRATION IN LAYER   1 AT END OF TIME STEP   2 IN STRESS PERIOD    2
  ---------------------------------------------------------------------------

                1               2               3               4               5               6               7               8               9              10
               11              12              13              14              15              16              17              18              19              20
               21              22              23              24              25              26              27              28              29              30
               31
 ................................................................................................................................................................................................................................................................................................................................................................................................................................................................................................................
   1      0.00000        1.730737E-45    9.547325E-43    2.411144E-40    3.208874E-38    1.342553E-36   -3.172075E-34   -7.362787E-32   -8.258312E-30   -5.994059E-28
        -2.969261E-26   -9.928108E-25   -2.165281E-23   -3.295686E-22   -3.429211E-21   -2.763746E-20   -3.429108E-21   -3.295221E-22   -2.164251E-23   -9.913919E-25
        -2.958204E-26   -5.944244E-28   -8.119901E-30   -7.112915E-32   -2.870145E-34    1.586354E-36    3.334977E-38    2.446472E-40    9.564734E-43    1.717872E-45
          0.00000    
   2     1.730737E-45    8.834043E-43    2.256253E-40    3.160113E-38    1.689269E-36   -2.533634E-34   -7.076931E-32   -8.850412E-30   -7.228261E-28   -4.156252E-26
        -1.703798E-24   -4.886605E-23   -9.510849E-22   -1.318746E-20   -1.190203E-19   -7.742208E-19   -1.190171E-19   -1.318590E-20   -9.507061E-22   -4.880692E-23
        -1.698464E-24   -4.128099E-26   -7.135093E-28   -8.645259E-30   -6.764651E-32   -2.199975E-34    1.936513E-36    3.280201E-38    2.288331E-40    8.847231E-43
         1.717854E-45
   3     9.547325E-43    2.256253E-40    3.133724E-38    1.846435E-36   -2.154790E-34   -6.886497E-32   -9.331584E-30   -8.327856E-28   -5.331456E-26   -2.503779E-24
        -8.592056E-23   -2.107171E-21   -3.600874E-20   -4.602505E-19   -3.556572E-18   -1.697420E-17   -3.556489E-18   -4.602050E-19   -3.599665E-20   -2.104995E-21
        -8.569093E-23   -2.489615E-24   -5.276329E-26   -8.183057E-28   -9.062889E-30   -6.525139E-32   -1.800506E-34    2.095251E-36    3.251938E-38    2.288493E-40
         9.564695E-43
   4     2.411144E-40    3.160113E-38    1.846435E-36   -2.027317E-34   -6.777325E-32   -9.618393E-30   -9.131895E-28   -6.326868E-26   -3.278051E-24   -1.271726E-22
        -3.645296E-21   -7.519799E-20   -1.090290E-18   -1.269656E-17   -8.833878E-17   -6.168270E-16   -8.833717E-17   -1.269557E-17   -1.089989E-18   -7.513164E-20
        -3.636913E-21   -1.265618E-22   -3.250151E-24   -6.240447E-26   -8.940202E-28   -9.303448E-30   -6.387557E-32   -1.663585E-34    2.097740E-36    3.282068E-38
         2.447031E-40
   5     3.208874E-38    1.689269E-36   -2.154790E-34   -6.777325E-32   -9.713115E-30   -9.557902E-28   -7.001035E-26   -3.903922E-24   -1.659515E-22   -5.321429E-21
        -1.259733E-19   -2.126545E-18   -2.500794E-17   -3.651306E-16   -3.783447E-15   -1.831133E-14   -3.783387E-15   -3.651106E-16   -2.500286E-17   -2.125002E-18
        -1.257247E-19   -5.299566E-21   -1.647695E-22   -3.860915E-24   -6.888436E-26   -9.336505E-28   -9.377906E-30   -6.381916E-32   -1.791733E-34    1.944137E-36
         3.339051E-38
   6     1.342553E-36   -2.533634E-34   -6.886497E-32   -9.618393E-30   -9.557902E-28   -7.240198E-26   -4.256701E-24   -1.940815E-22   -6.789570E-21   -1.788700E-19
        -3.449729E-18   -4.806844E-17   -1.021695E-15   -1.556804E-14   -9.983858E-14   -3.492172E-13   -9.983744E-14   -1.556747E-14   -1.021579E-15   -4.804406E-17
        -3.444185E-18   -1.782472E-19   -6.749041E-21   -1.923372E-22   -4.203072E-24   -7.115709E-26   -9.332239E-28   -9.292723E-30   -6.508977E-32   -2.182836E-34
         1.599458E-36
   7    -3.172075E-34   -7.076931E-32   -9.331584E-30   -9.131895E-28   -7.001035E-26   -4.256701E-24   -2.044137E-22   -7.658309E-21   -2.200050E-19   -4.745428E-18
        -7.745285E-17   -2.100776E-15   -4.080749E-14   -3.189513E-13   -1.091644E-12    8.744473E-12   -1.091645E-12   -3.189453E-13   -4.080579E-14   -2.100446E-15
        -7.736701E-17   -4.732311E-18   -2.189278E-19   -7.602797E-21   -2.023966E-22   -4.201730E-24   -6.883410E-26   -8.928755E-28   -9.043871E-30   -6.740288E-32
        -2.845599E-34
   8    -7.362787E-32   -8.850412E-30   -8.327856E-28   -6.326868E-26   -3.903922E-24   -1.940815E-22   -7.658309E-21   -2.356634E-19   -5.566649E-18   -1.032617E-16
        -3.320901E-15   -7.633940E-14   -7.173136E-13    7.773978E-13    1.787354E-10    2.581381E-09    1.787351E-10    7.773191E-13   -7.172940E-13   -7.634198E-14
        -3.320059E-15   -1.030734E-16   -5.546136E-18   -2.343428E-19   -7.600997E-21   -1.922362E-22   -3.857575E-24   -6.232423E-26   -8.167972E-28   -8.622287E-30
        -7.083877E-32
   9    -8.258312E-30   -7.228261E-28   -5.331456E-26   -3.278051E-24   -1.659515E-22   -6.789570E-21   -2.200050E-19   -5.566649E-18   -1.136980E-16   -4.157656E-15
        -1.084154E-13   -1.136662E-12    1.180724E-11    1.111032E-09    3.638632E-08    5.415006E-07    3.638632E-08    1.111031E-09    1.180705E-11   -1.136602E-12
        -1.084267E-13   -4.156250E-15   -1.134445E-16   -5.545255E-18   -2.188465E-19   -6.744967E-21   -1.646276E-22   -3.246386E-24   -5.268267E-26   -7.120704E-28
        -8.097805E-30
  10    -5.994059E-28   -4.156252E-26   -2.503779E-24   -1.271726E-22   -5.321429E-21   -1.788700E-19   -4.745428E-18   -1.032617E-16   -4.157656E-15   -1.214006E-13
        -1.392639E-12    3.151636E-11    3.490539E-09    1.925478E-07    6.426597E-06    9.233166E-05    6.426597E-06    1.925479E-07    3.490533E-09    3.151675E-11
        -1.392539E-12   -1.214199E-13   -4.156190E-15   -1.030539E-16   -4.730582E-18   -1.781509E-19   -5.295798E-21   -1.264480E-22   -2.486821E-24   -4.122310E-26
        -5.933696E-28
  11    -2.969261E-26   -1.703798E-24   -8.592056E-23   -3.645296E-21   -1.259733E-19   -3.449729E-18   -7.745285E-17   -3.320901E-15   -1.084154E-13   -1.392639E-12
         4.240501E-11    6.081650E-09    4.904418E-07    2.664706E-05    8.345346E-04    1.101568E-02    8.345346E-04    2.664706E-05    4.904418E-07    6.081632E-09
         4.240640E-11   -1.392537E-12   -1.084303E-13   -3.319963E-15   -7.734997E-17   -3.442988E-18   -1.256673E-19   -3.634874E-21   -8.563274E-23   -1.697067E-24
        -2.955232E-26
  12    -9.928108E-25   -4.886605E-23   -2.107171E-21   -7.519799E-20   -2.126545E-18   -4.806844E-17   -2.100776E-15   -7.633940E-14   -1.136662E-12    3.151636E-11
         6.081650E-09    6.617713E-07    5.154098E-05    2.539857E-03    6.854369E-02    0.723177        6.854369E-02    2.539857E-03    5.154098E-05    6.617715E-07
         6.081630E-09    3.151705E-11   -1.136595E-12   -7.634431E-14   -2.100391E-15   -4.803770E-17   -2.124575E-18   -7.511255E-20   -2.104348E-21   -4.878881E-23
        -9.909456E-25
  13    -2.165281E-23   -9.510849E-22   -3.600874E-20   -1.090290E-18   -2.500794E-17   -1.021695E-15   -4.080749E-14   -7.173136E-13    1.180724E-11    3.490539E-09
         4.904418E-07    5.154098E-05    3.551960E-03    0.141506         2.55247         14.5350         2.55247        0.141506        3.551960E-03    5.154098E-05
         4.904419E-07    3.490532E-09    1.180711E-11   -7.172914E-13   -4.080583E-14   -1.021556E-15   -2.500156E-17   -1.089907E-18   -3.599322E-20   -9.505943E-22
        -2.163936E-23
  14    -3.295686E-22   -1.318746E-20   -4.602505E-19   -1.269656E-17   -3.651306E-16   -1.556804E-14   -3.189513E-13    7.773978E-13    1.111032E-09    1.925478E-07
         2.664706E-05    2.539857E-03    0.141506         3.41825         25.9941         62.4167         25.9941         3.41825        0.141506        2.539857E-03
         2.664706E-05    1.925479E-07    1.111031E-09    7.773112E-13   -3.189446E-13   -1.556740E-14   -3.651070E-16   -1.269537E-17   -4.601957E-19   -1.318557E-20
        -3.295119E-22
  15    -3.429211E-21   -1.190203E-19   -3.556572E-18   -8.833878E-17   -3.783447E-15   -9.983858E-14   -1.091644E-12    1.787354E-10    3.638632E-08    6.426597E-06
         8.345346E-04    6.854369E-02     2.55247         25.9941         71.9171         93.1873         71.9171         25.9941         2.55247        6.854369E-02
         8.345346E-04    6.426597E-06    3.638632E-08    1.787350E-10   -1.091646E-12   -9.983728E-14   -3.783379E-15   -8.833697E-17   -3.556479E-18   -1.190167E-19
        -3.429096E-21
  16    -2.763746E-20   -7.742208E-19   -1.697420E-17   -6.168270E-16   -1.831133E-14   -3.492172E-13    8.744473E-12    2.581381E-09    5.415006E-07    9.233166E-05
         1.101568E-02    0.723177         14.5350         62.4167         93.1873         99.3523         93.1873         62.4167         14.5350        0.723177    
         1.101568E-02    9.233166E-05    5.415006E-07    2.581381E-09    8.744473E-12   -3.492172E-13   -1.831133E-14   -6.168271E-16   -1.697420E-17   -7.742209E-19
        -2.763746E-20
  17    -3.429108E-21   -1.190171E-19   -3.556489E-18   -8.833717E-17   -3.783387E-15   -9.983744E-14   -1.091645E-12    1.787351E-10    3.638632E-08    6.426597E-06
         8.345346E-04    6.854369E-02     2.55247         25.9941         71.9171         93.1873         71.9171         25.9941         2.55247        6.854369E-02
         8.345346E-04    6.426597E-06    3.638632E-08    1.787354E-10   -1.091644E-12   -9.983858E-14   -3.783447E-15   -8.833878E-17   -3.556572E-18   -1.190203E-19
        -3.429211E-21
  18    -3.295221E-22   -1.318590E-20   -4.602050E-19   -1.269557E-17   -3.651106E-16   -1.556747E-14   -3.189453E-13    7.773191E-13    1.111031E-09    1.925479E-07
         2.664706E-05    2.539857E-03    0.141506         3.41825         25.9941         62.4167         25.9941         3.41825        0.141506        2.539857E-03
         2.664706E-05    1.925478E-07    1.111032E-09    7.773980E-13   -3.189513E-13   -1.556804E-14   -3.651306E-16   -1.269656E-17   -4.602505E-19   -1.318746E-20
        -3.295686E-22
  19    -2.164251E-23   -9.507061E-22   -3.599665E-20   -1.089989E-18   -2.500286E-17   -1.021579E-15   -4.080579E-14   -7.172940E-13    1.180705E-11    3.490533E-09
         4.904418E-07    5.154098E-05    3.551960E-03    0.141506         2.55247         14.5350         2.55247        0.141506        3.551960E-03    5.154098E-05
         4.904418E-07    3.490539E-09    1.180724E-11   -7.173136E-13   -4.080749E-14   -1.021695E-15   -2.500794E-17   -1.090290E-18   -3.600874E-20   -9.510849E-22
        -2.165281E-23
  20    -9.913919E-25   -4.880692E-23   -2.104995E-21   -7.513164E-20   -2.125002E-18   -4.804406E-17   -2.100446E-15   -7.634198E-14   -1.136602E-12    3.151675E-11
         6.081632E-09    6.617715E-07    5.154098E-05    2.539857E-03    6.854369E-02    0.723177        6.854369E-02    2.539857E-03    5.154098E-05    6.617713E-07
         6.081650E-09    3.151636E-11   -1.136662E-12   -7.633940E-14   -2.100776E-15   -4.806844E-17   -2.126545E-18   -7.519799E-20   -2.107171E-21   -4.886605E-23
        -9.928108E-25
  21    -2.958204E-26   -1.698464E-24   -8.569093E-23   -3.636913E-21   -1.257247E-19   -3.444185E-18   -7.736701E-17   -3.320059E-15   -1.084267E-13   -1.392539E-12
         4.240640E-11    6.081630E-09    4.904419E-07    2.664706E-05    8.345346E-04    1.101568E-02    8.345346E-04    2.664706E-05    4.904418E-07    6.081650E-09
         4.240501E-11   -1.392639E-12   -1.084154E-13   -3.320901E-15   -7.745285E-17   -3.449729E-18   -1.259733E-19   -3.645296E-21   -8.592056E-23   -1.703798E-24
        -2.969261E-26
  22    -5.944244E-28   -4.128099E-26   -2.489615E-24   -1.265618E-22   -5.299566E-21   -1.782472E-19   -4.732311E-18   -1.030734E-16   -4.156250E-15   -1.214199E-13
        -1.392537E-12    3.151705E-11    3.490532E-09    1.925479E-07    6.426597E-06    9.233166E-05    6.426597E-06    1.925478E-07    3.490539E-09    3.151636E-11
        -1.392639E-12   -1.214006E-13   -4.157656E-15   -1.032617E-16   -4.745428E-18   -1.788700E-19   -5.321429E-21   -1.271726E-22   -2.503779E-24   -4.156252E-26
        -5.994059E-28
  23    -8.119901E-30   -7.135093E-28   -5.276329E-26   -3.250151E-24   -1.647695E-22   -6.749041E-21   -2.189278E-19   -5.546136E-18   -1.134445E-16   -4.156190E-15
        -1.084303E-13   -1.136595E-12    1.180711E-11    1.111031E-09    3.638632E-08    5.415006E-07    3.638632E-08    1.111032E-09    1.180724E-11   -1.136662E-12
        -1.084154E-13   -4.157656E-15   -1.136980E-16   -5.566649E-18   -2.200050E-19   -6.789570E-21   -1.659515E-22   -3.278051E-24   -5.331456E-26   -7.228261E-28
        -8.258312E-30
  24    -7.112915E-32   -8.645259E-30   -8.183057E-28   -6.240447E-26   -3.860915E-24   -1.923372E-22   -7.602797E-21   -2.343428E-19   -5.545255E-18   -1.030539E-16
        -3.319963E-15   -7.634431E-14   -7.172914E-13    7.773112E-13    1.787350E-10    2.581381E-09    1.787354E-10    7.773980E-13   -7.173136E-13   -7.633940E-14
        -3.320901E-15   -1.032617E-16   -5.566649E-18   -2.356634E-19   -7.658309E-21   -1.940815E-22   -3.903922E-24   -6.326868E-26   -8.327856E-28   -8.850412E-30
        -7.362787E-32
  25    -2.870145E-34   -6.764651E-32   -9.062889E-30   -8.940202E-28   -6.888436E-26   -4.203072E-24   -2.023966E-22   -7.600997E-21   -2.188465E-19   -4.730582E-18
        -7.734997E-17   -2.100391E-15   -4.080583E-14   -3.189446E-13   -1.091646E-12    8.744473E-12   -1.091644E-12   -3.189513E-13   -4.080749E-14   -2.100776E-15
        -7.745285E-17   -4.745428E-18   -2.200050E-19   -7.658309E-21   -2.044137E-22   -4.256701E-24   -7.001035E-26   -9.131895E-28   -9.331584E-30   -7.076931E-32
        -3.172075E-34
  26     1.586354E-36   -2.199975E-34   -6.525139E-32   -9.303448E-30   -9.336505E-28   -7.115709E-26   -4.201730E-24   -1.922362E-22   -6.744967E-21   -1.781509E-19
        -3.442988E-18   -4.803770E-17   -1.021556E-15   -1.556740E-14   -9.983728E-14   -3.492172E-13   -9.983858E-14   -1.556804E-14   -1.021695E-15   -4.806844E-17
        -3.449729E-18   -1.788700E-19   -6.789570E-21   -1.940815E-22   -4.256701E-24   -7.240198E-26   -9.557902E-28   -9.618393E-30   -6.886497E-32   -2.533634E-34
         1.342553E-36
  27     3.334977E-38    1.936513E-36   -1.800506E-34   -6.387557E-32   -9.377906E-30   -9.332239E-28   -6.883410E-26   -3.857575E-24   -1.646276E-22   -5.295798E-21
        -1.256673E-19   -2.124575E-18   -2.500156E-17   -3.651070E-16   -3.783379E-15   -1.831133E-14   -3.783447E-15   -3.651306E-16   -2.500794E-17   -2.126545E-18
        -1.259733E-19   -5.321429E-21   -1.659515E-22   -3.903922E-24   -7.001035E-26   -9.557902E-28   -9.713115E-30   -6.777325E-32   -2.154790E-34    1.689269E-36
         3.208874E-38
  28     2.446472E-40    3.280201E-38    2.095251E-36   -1.663585E-34   -6.381916E-32   -9.292723E-30   -8.928755E-28   -6.232423E-26   -3.246386E-24   -1.264480E-22
        -3.634874E-21   -7.511255E-20   -1.089907E-18   -1.269537E-17   -8.833697E-17   -6.168271E-16   -8.833878E-17   -1.269656E-17   -1.090290E-18   -7.519799E-20
        -3.645296E-21   -1.271726E-22   -3.278051E-24   -6.326868E-26   -9.131895E-28   -9.618393E-30   -6.777325E-32   -2.027317E-34    1.846435E-36    3.160113E-38
         2.411144E-40
  29     9.564734E-43    2.288331E-40    3.251938E-38    2.097740E-36   -1.791733E-34   -6.508977E-32   -9.043871E-30   -8.167972E-28   -5.268267E-26   -2.486821E-24
        -8.563274E-23   -2.104348E-21   -3.599322E-20   -4.601957E-19   -3.556479E-18   -1.697420E-17   -3.556572E-18   -4.602505E-19   -3.600874E-20   -2.107171E-21
        -8.592056E-23   -2.503779E-24   -5.331456E-26   -8.327856E-28   -9.331584E-30   -6.886497E-32   -2.154790E-34    1.846435E-36    3.133724E-38    2.256253E-40
         9.547325E-43
  30     1.717872E-45    8.847231E-43    2.288493E-40    3.282068E-38    1.944137E-36   -2.182836E-34   -6.740288E-32   -8.622287E-30   -7.120704E-28   -4.122310E-26
        -1.697067E-24   -4.878881E-23   -9.505943E-22   -1.318557E-20   -1.190167E-19   -7.742209E-19   -1.190203E-19   -1.318746E-20   -9.510849E-22   -4.886605E-23
        -1.703798E-24   -4.156252E-26   -7.228261E-28   -8.850412E-30   -7.076931E-32   -2.533634E-34    1.689269E-36    3.160113E-38    2.256253E-40    8.834044E-43
         1.730737E-45
  31      0.00000        1.717854E-45    9.564695E-43    2.447031E-40    3.339051E-38    1.599458E-36   -2.845599E-34   -7.083877E-32   -8.097805E-30   -5.933696E-28
        -2.955232E-26   -9.909456E-25   -2.163936E-23   -3.295119E-22   -3.429096E-21   -2.763746E-20   -3.429211E-21   -3.295686E-22   -2.165281E-23   -9.928108E-25
        -2.969261E-26   -5.994059E-28   -8.258312E-30   -7.362787E-32   -3.172075E-34    1.342553E-36    3.208874E-38    2.411144E-40    9.547325E-43    1.730737E-45
          0.00000    

 CONCENTRATION WILL BE SAVED ON UNIT 1030 AT END OF TIME STEP    2, STRESS PERIOD    2


  MASS BUDGET FOR ENTIRE MODEL AT END OF TIME STEP    2, STRESS PERIOD   2
  ---------------------------------------------------------------------------------------------------

     CUMULATIVE MASS      M       RATES FOR THIS TIME STEP      M/T          PACKAGE NAME    
     ------------------                 ------------------------                     ----------------

           IN:                                      IN:
           ---                                      ---
     STORAGE-AQUEOUS =   432909439.4785       STORAGE-AQUEOUS =     8600610.9323     MST                              
                 WEL =  7884000000.0000                   WEL =           0.0000     SSM_WEL-1                        
                 CHD =           0.0000                   CHD =           0.0000     SSM_CHD-1                        

            TOTAL IN =  8316909439.4785              TOTAL IN =     8600610.9323

          OUT:                                     OUT:
          ----                                     ----
     STORAGE-AQUEOUS =  7884884016.4541       STORAGE-AQUEOUS =       16569.3800     MST                              
                 WEL =   432025423.0244                   WEL =     8584041.5523     SSM_WEL-1                        
                 CHD =       7.5562E-18                   CHD =           0.0000     SSM_CHD-1                        

           TOTAL OUT =  8316909439.4785             TOTAL OUT =     8600610.9323

            IN - OUT =      -2.0027E-05              IN - OUT =       6.7055E-08

 PERCENT DISCREPANCY =          -0.00     PERCENT DISCREPANCY =           0.00




         TIME SUMMARY AT END OF TIME STEP    2 IN STRESS PERIOD    2
                    SECONDS     MINUTES      HOURS       DAYS        YEARS
                    -----------------------------------------------------------
   TIME STEP LENGTH 2.16991E+06  36165.      602.75      25.115     6.87602E-02
 STRESS PERIOD TIME 4.33982E+06  72330.      1205.5      50.229     0.13752    
         TOTAL TIME 8.31798E+07 1.38633E+06  23106.      962.73      2.6358    


end timestep


start timestep kper="2" kstp="3" mode="normal"

 UBDSV1 SAVING  STORAGE-AQUEOUS ON UNIT   1029 AT TIME STEP      3, STRESS PERIOD      2
 UBDSV1 SAVING     FLOW-JA-FACE ON UNIT   1029 AT TIME STEP      3, STRESS PERIOD      2
 UBDSV06 SAVING  SOURCE-SINK MIX IN MODEL GWT_P06-MF6      PACKAGE GWT_P06-MF6     CONNECTED TO MODEL GWT_P06-MF6      PACKAGE SSM              ON UNIT   1029 AT TIME STEP      3, STRESS PERIOD      2
1
  CONCENTRATION IN LAYER   1 AT END OF TIME STEP   3 IN STRESS PERIOD    2
  ---------------------------------------------------------------------------

                1               2               3               4               5               6               7               8               9              10
               11              12              13              14              15              16              17              18              19              20
               21              22              23              24              25              26              27              28              29              30
               31
 ................................................................................................................................................................................................................................................................................................................................................................................................................................................................................................................
   1      0.00000        1.854882E-45    1.010042E-42    2.515052E-40    3.259993E-38    1.160118E-36   -3.660255E-34   -7.999062E-32   -8.791694E-30   -6.299598E-28
        -3.089451E-26   -1.024767E-24   -2.223608E-23   -3.370449E-22   -3.492603E-21   -2.790690E-20   -3.492498E-21   -3.369978E-22   -2.222560E-23   -1.023320E-24
        -3.078120E-26   -6.248229E-28   -8.647893E-30   -7.737218E-32   -3.340737E-34    1.421197E-36    3.397229E-38    2.554781E-40    1.012657E-42    1.842322E-45
          0.00000    
   2     1.854882E-45    9.240128E-43    2.336304E-40    3.211159E-38    1.559789E-36   -2.941940E-34   -7.673436E-32   -9.414696E-30   -7.600945E-28   -4.331265E-26
        -1.761756E-24   -5.019259E-23   -9.722881E-22   -1.343120E-20   -1.207312E-19   -7.788248E-19   -1.207279E-19   -1.342963E-20   -9.719042E-22   -5.013249E-23
        -1.756311E-24   -4.302370E-26   -7.504736E-28   -9.201448E-30   -7.346575E-32   -2.590115E-34    1.822701E-36    3.340351E-38    2.371691E-40    9.259630E-43
         1.842304E-45
   3     1.010042E-42    2.336304E-40    3.182969E-38    1.741846E-36   -2.511449E-34   -7.446038E-32   -9.908723E-30   -8.751131E-28   -5.557209E-26   -2.591230E-24
        -8.833853E-23   -2.153692E-21   -3.664210E-20   -4.665261E-19   -3.594864E-18   -1.714402E-17   -3.594780E-18   -4.664803E-19   -3.662991E-20   -2.151488E-21
        -8.810501E-23   -2.576755E-24   -5.500564E-26   -8.601520E-28   -9.629550E-30   -7.068485E-32   -2.139102E-34    2.005210E-36    3.309530E-38    2.371881E-40
         1.012663E-42
   4     2.515052E-40    3.211159E-38    1.741846E-36   -2.365542E-34   -7.312772E-32   -1.019535E-29   -9.585253E-28   -6.591611E-26   -3.392832E-24   -1.308146E-22
        -3.727536E-21   -7.647231E-20   -1.104634E-18   -1.281640E-17   -8.997504E-17   -6.205023E-16   -8.997341E-17   -1.281540E-17   -1.104332E-18   -7.640541E-20
        -3.719044E-21   -1.301930E-22   -3.364291E-24   -6.502756E-26   -9.387191E-28   -9.868363E-30   -6.906065E-32   -1.983764E-34    2.007882E-36    3.342412E-38
         2.555453E-40
   5     3.259993E-38    1.559789E-36   -2.511449E-34   -7.312772E-32   -1.028831E-29   -1.002441E-27   -7.289751E-26   -4.039550E-24   -1.707140E-22   -5.443222E-21
        -1.281525E-19   -2.153956E-18   -2.554332E-17   -3.726663E-16   -3.808857E-15   -1.829393E-14   -3.808797E-15   -3.726462E-16   -2.553823E-17   -2.152408E-18
        -1.279019E-19   -5.421065E-21   -1.695101E-22   -3.995527E-24   -7.173953E-26   -9.795687E-28   -9.940384E-30   -6.900138E-32   -2.129790E-34    1.830934E-36
         3.401790E-38
   6     1.160118E-36   -2.941940E-34   -7.446038E-32   -1.019535E-29   -1.002441E-27   -7.536905E-26   -4.403535E-24   -1.996319E-22   -6.945823E-21   -1.820406E-19
        -3.497623E-18   -4.937372E-17   -1.043769E-15   -1.561621E-14   -9.927625E-14   -3.380681E-13   -9.927513E-14   -1.561565E-14   -1.043653E-15   -4.934942E-17
        -3.492060E-18   -1.814124E-19   -6.904726E-21   -1.978545E-22   -4.348624E-24   -7.408867E-26   -9.791262E-28   -9.857169E-30   -7.051478E-32   -2.571855E-34
         1.435465E-36
   7    -3.660255E-34   -7.673436E-32   -9.908723E-30   -9.585253E-28   -7.289751E-26   -4.403535E-24   -2.102480E-22   -7.834773E-21   -2.239635E-19   -4.815095E-18
        -7.977668E-17   -2.145969E-15   -4.084481E-14   -3.146654E-13   -8.975018E-13    1.111359E-11   -8.975031E-13   -3.146596E-13   -4.084312E-14   -2.145645E-15
        -7.969146E-17   -4.801931E-18   -2.228765E-19   -7.778462E-21   -2.081920E-22   -4.347247E-24   -7.168768E-26   -9.375317E-28   -9.609688E-30   -7.320891E-32
        -3.314481E-34
   8    -7.999062E-32   -9.414696E-30   -8.751131E-28   -6.591611E-26   -4.039550E-24   -1.996319E-22   -7.834773E-21   -2.399242E-19   -5.650581E-18   -1.064877E-16
        -3.390422E-15   -7.625068E-14   -6.941023E-13    2.105844E-12    2.171638E-10    3.112724E-09    2.171635E-10    2.105765E-12   -6.940832E-13   -7.625315E-14
        -3.389602E-15   -1.063010E-16   -5.629991E-18   -2.385915E-19   -7.776634E-21   -1.977514E-22   -3.992100E-24   -6.494484E-26   -8.585877E-28   -9.177453E-30
        -7.706578E-32
   9    -8.791694E-30   -7.600945E-28   -5.557209E-26   -3.392832E-24   -1.707140E-22   -6.945823E-21   -2.239635E-19   -5.650581E-18   -1.172897E-16   -4.242367E-15
        -1.081029E-13   -1.073624E-12    1.660391E-11    1.350855E-09    4.383869E-08    6.384345E-07    4.383869E-08    1.350853E-09    1.660372E-11   -1.073565E-12
        -1.081138E-13   -4.241005E-15   -1.170386E-16   -5.629107E-18   -2.227945E-19   -6.900591E-21   -1.693654E-22   -3.360433E-24   -5.492261E-26   -7.489831E-28
        -8.624842E-30
  10    -6.299598E-28   -4.331265E-26   -2.591230E-24   -1.308146E-22   -5.443222E-21   -1.820406E-19   -4.815095E-18   -1.064877E-16   -4.242367E-15   -1.209705E-13
        -1.291327E-12    4.162353E-11    4.232506E-09    2.298114E-07    7.481225E-06    1.044046E-04    7.481225E-06    2.298114E-07    4.232500E-09    4.162388E-11
        -1.291227E-12   -1.209892E-13   -4.240948E-15   -1.062818E-16   -4.800196E-18   -1.813153E-19   -5.417245E-21   -1.300770E-22   -2.573896E-24   -4.296419E-26
        -6.237328E-28
  11    -3.089451E-26   -1.761756E-24   -8.833853E-23   -3.727536E-21   -1.281525E-19   -3.497623E-18   -7.977668E-17   -3.390422E-15   -1.081029E-13   -1.291327E-12
         5.530685E-11    7.353408E-09    5.807189E-07    3.062071E-05    9.265745E-04    1.176221E-02    9.265745E-04    3.062071E-05    5.807189E-07    7.353391E-09
         5.530817E-11   -1.291225E-12   -1.081173E-13   -3.389512E-15   -7.967460E-17   -3.490860E-18   -1.278440E-19   -3.716980E-21   -8.804584E-23   -1.754885E-24
        -3.075073E-26
  12    -1.024767E-24   -5.019259E-23   -2.153692E-21   -7.647231E-20   -2.153956E-18   -4.937372E-17   -2.145969E-15   -7.625068E-14   -1.073624E-12    4.162353E-11
         7.353408E-09    7.816105E-07    5.876720E-05    2.779149E-03    7.154310E-02    0.722806        7.154310E-02    2.779149E-03    5.876720E-05    7.816107E-07
         7.353389E-09    4.162418E-11   -1.073558E-12   -7.625543E-14   -2.145592E-15   -4.934310E-17   -2.151980E-18   -7.638618E-20   -2.150833E-21   -5.011410E-23
        -1.022865E-24
  13    -2.223608E-23   -9.722881E-22   -3.664210E-20   -1.104634E-18   -2.554332E-17   -1.043769E-15   -4.084481E-14   -6.941023E-13    1.660391E-11    4.232506E-09
         5.807189E-07    5.876720E-05    3.870361E-03    0.145903         2.51481         14.0285         2.51481        0.145903        3.870361E-03    5.876720E-05
         5.807189E-07    4.232499E-09    1.660378E-11   -6.940806E-13   -4.084315E-14   -1.043630E-15   -2.553693E-17   -1.104250E-18   -3.662645E-20   -9.717911E-22
        -2.222240E-23
  14    -3.370449E-22   -1.343120E-20   -4.665261E-19   -1.281640E-17   -3.726663E-16   -1.561621E-14   -3.146654E-13    2.105844E-12    1.350855E-09    2.298114E-07
         3.062071E-05    2.779149E-03    0.145903         3.34622         24.9511         60.1035         24.9511         3.34622        0.145903        2.779149E-03
         3.062071E-05    2.298114E-07    1.350853E-09    2.105757E-12   -3.146588E-13   -1.561558E-14   -3.726426E-16   -1.281521E-17   -4.664709E-19   -1.342929E-20
        -3.369874E-22
  15    -3.492603E-21   -1.207312E-19   -3.594864E-18   -8.997504E-17   -3.808857E-15   -9.927625E-14   -8.975018E-13    2.171638E-10    4.383869E-08    7.481225E-06
         9.265745E-04    7.154310E-02     2.51481         24.9511         69.5322         91.2958         69.5322         24.9511         2.51481        7.154310E-02
         9.265745E-04    7.481225E-06    4.383869E-08    2.171635E-10   -8.975034E-13   -9.927497E-14   -3.808789E-15   -8.997321E-17   -3.594770E-18   -1.207275E-19
        -3.492486E-21
  16    -2.790690E-20   -7.788248E-19   -1.714402E-17   -6.205023E-16   -1.829393E-14   -3.380681E-13    1.111359E-11    3.112724E-09    6.384345E-07    1.044046E-04
         1.176221E-02    0.722806         14.0285         60.1035         91.2958         98.7960         91.2958         60.1035         14.0285        0.722806    
         1.176221E-02    1.044046E-04    6.384345E-07    3.112724E-09    1.111359E-11   -3.380680E-13   -1.829393E-14   -6.205024E-16   -1.714402E-17   -7.788248E-19
        -2.790690E-20
  17    -3.492498E-21   -1.207279E-19   -3.594780E-18   -8.997341E-17   -3.808797E-15   -9.927513E-14   -8.975031E-13    2.171635E-10    4.383869E-08    7.481225E-06
         9.265745E-04    7.154310E-02     2.51481         24.9511         69.5322         91.2958         69.5322         24.9511         2.51481        7.154310E-02
         9.265745E-04    7.481225E-06    4.383869E-08    2.171638E-10   -8.975017E-13   -9.927624E-14   -3.808857E-15   -8.997504E-17   -3.594864E-18   -1.207312E-19
        -3.492603E-21
  18    -3.369978E-22   -1.342963E-20   -4.664803E-19   -1.281540E-17   -3.726462E-16   -1.561565E-14   -3.146596E-13    2.105765E-12    1.350853E-09    2.298114E-07
         3.062071E-05    2.779149E-03    0.145903         3.34622         24.9511         60.1035         24.9511         3.34622        0.145903        2.779149E-03
         3.062071E-05    2.298114E-07    1.350855E-09    2.105844E-12   -3.146654E-13   -1.561621E-14   -3.726663E-16   -1.281640E-17   -4.665261E-19   -1.343120E-20
        -3.370449E-22
  19    -2.222560E-23   -9.719042E-22   -3.662991E-20   -1.104332E-18   -2.553823E-17   -1.043653E-15   -4.084312E-14   -6.940832E-13    1.660372E-11    4.232500E-09
         5.807189E-07    5.876720E-05    3.870361E-03    0.145903         2.51481         14.0285         2.51481        0.145903        3.870361E-03    5.876720E-05
         5.807189E-07    4.232506E-09    1.660391E-11   -6.941023E-13   -4.084481E-14   -1.043769E-15   -2.554332E-17   -1.104634E-18   -3.664210E-20   -9.722881E-22
        -2.223608E-23
  20    -1.023320E-24   -5.013249E-23   -2.151488E-21   -7.640541E-20   -2.152408E-18   -4.934942E-17   -2.145645E-15   -7.625315E-14   -1.073565E-12    4.162388E-11
         7.353391E-09    7.816107E-07    5.876720E-05    2.779149E-03    7.154310E-02    0.722806        7.154310E-02    2.779149E-03    5.876720E-05    7.816105E-07
         7.353408E-09    4.162353E-11   -1.073624E-12   -7.625068E-14   -2.145969E-15   -4.937372E-17   -2.153956E-18   -7.647231E-20   -2.153692E-21   -5.019259E-23
        -1.024767E-24
  21    -3.078120E-26   -1.756311E-24   -8.810501E-23   -3.719044E-21   -1.279019E-19   -3.492060E-18   -7.969146E-17   -3.389602E-15   -1.081138E-13   -1.291227E-12
         5.530817E-11    7.353389E-09    5.807189E-07    3.062071E-05    9.265745E-04    1.176221E-02    9.265745E-04    3.062071E-05    5.807189E-07    7.353408E-09
         5.530685E-11   -1.291327E-12   -1.081029E-13   -3.390422E-15   -7.977668E-17   -3.497623E-18   -1.281525E-19   -3.727536E-21   -8.833853E-23   -1.761756E-24
        -3.089451E-26
  22    -6.248229E-28   -4.302370E-26   -2.576755E-24   -1.301930E-22   -5.421065E-21   -1.814124E-19   -4.801931E-18   -1.063010E-16   -4.241005E-15   -1.209892E-13
        -1.291225E-12    4.162418E-11    4.232499E-09    2.298114E-07    7.481225E-06    1.044046E-04    7.481225E-06    2.298114E-07    4.232506E-09    4.162353E-11
        -1.291327E-12   -1.209705E-13   -4.242367E-15   -1.064877E-16   -4.815095E-18   -1.820406E-19   -5.443222E-21   -1.308146E-22   -2.591230E-24   -4.331265E-26
        -6.299598E-28
  23    -8.647893E-30   -7.504736E-28   -5.500564E-26   -3.364291E-24   -1.695101E-22   -6.904726E-21   -2.228765E-19   -5.629991E-18   -1.170386E-16   -4.240948E-15
        -1.081173E-13   -1.073558E-12    1.660378E-11    1.350853E-09    4.383869E-08    6.384345E-07    4.383869E-08    1.350855E-09    1.660391E-11   -1.073624E-12
        -1.081029E-13   -4.242367E-15   -1.172897E-16   -5.650581E-18   -2.239635E-19   -6.945823E-21   -1.707140E-22   -3.392832E-24   -5.557209E-26   -7.600945E-28
        -8.791694E-30
  24    -7.737218E-32   -9.201448E-30   -8.601520E-28   -6.502756E-26   -3.995527E-24   -1.978545E-22   -7.778462E-21   -2.385915E-19   -5.629107E-18   -1.062818E-16
        -3.389512E-15   -7.625543E-14   -6.940806E-13    2.105757E-12    2.171635E-10    3.112724E-09    2.171638E-10    2.105844E-12   -6.941023E-13   -7.625068E-14
        -3.390422E-15   -1.064877E-16   -5.650581E-18   -2.399242E-19   -7.834773E-21   -1.996319E-22   -4.039550E-24   -6.591611E-26   -8.751131E-28   -9.414696E-30
        -7.999062E-32
  25    -3.340737E-34   -7.346575E-32   -9.629550E-30   -9.387191E-28   -7.173953E-26   -4.348624E-24   -2.081920E-22   -7.776634E-21   -2.227945E-19   -4.800196E-18
        -7.967460E-17   -2.145592E-15   -4.084315E-14   -3.146588E-13   -8.975034E-13    1.111359E-11   -8.975017E-13   -3.146654E-13   -4.084481E-14   -2.145969E-15
        -7.977668E-17   -4.815095E-18   -2.239635E-19   -7.834773E-21   -2.102480E-22   -4.403535E-24   -7.289751E-26   -9.585253E-28   -9.908722E-30   -7.673436E-32
        -3.660255E-34
  26     1.421197E-36   -2.590115E-34   -7.068485E-32   -9.868363E-30   -9.795687E-28   -7.408867E-26   -4.347247E-24   -1.977514E-22   -6.900591E-21   -1.813153E-19
        -3.490860E-18   -4.934310E-17   -1.043630E-15   -1.561558E-14   -9.927497E-14   -3.380680E-13   -9.927624E-14   -1.561621E-14   -1.043769E-15   -4.937372E-17
        -3.497623E-18   -1.820406E-19   -6.945823E-21   -1.996319E-22   -4.403535E-24   -7.536905E-26   -1.002441E-27   -1.019535E-29   -7.446038E-32   -2.941940E-34
         1.160118E-36
  27     3.397229E-38    1.822701E-36   -2.139102E-34   -6.906065E-32   -9.940384E-30   -9.791262E-28   -7.168768E-26   -3.992100E-24   -1.693654E-22   -5.417245E-21
        -1.278440E-19   -2.151980E-18   -2.553693E-17   -3.726426E-16   -3.808789E-15   -1.829393E-14   -3.808857E-15   -3.726663E-16   -2.554332E-17   -2.153956E-18
        -1.281525E-19   -5.443222E-21   -1.707140E-22   -4.039550E-24   -7.289751E-26   -1.002441E-27   -1.028831E-29   -7.312772E-32   -2.511449E-34    1.559789E-36
         3.259993E-38
  28     2.554781E-40    3.340351E-38    2.005210E-36   -1.983764E-34   -6.900138E-32   -9.857169E-30   -9.375317E-28   -6.494484E-26   -3.360433E-24   -1.300770E-22
        -3.716980E-21   -7.638618E-20   -1.104250E-18   -1.281521E-17   -8.997321E-17   -6.205024E-16   -8.997504E-17   -1.281640E-17   -1.104634E-18   -7.647231E-20
        -3.727536E-21   -1.308146E-22   -3.392832E-24   -6.591611E-26   -9.585253E-28   -1.019535E-29   -7.312772E-32   -2.365542E-34    1.741846E-36    3.211159E-38
         2.515052E-40
  29     1.012657E-42    2.371691E-40    3.309530E-38    2.007882E-36   -2.129790E-34   -7.051478E-32   -9.609688E-30   -8.585877E-28   -5.492261E-26   -2.573896E-24
        -8.804584E-23   -2.150833E-21   -3.662645E-20   -4.664709E-19   -3.594770E-18   -1.714402E-17   -3.594864E-18   -4.665261E-19   -3.664210E-20   -2.153692E-21
        -8.833853E-23   -2.591230E-24   -5.557209E-26   -8.751131E-28   -9.908722E-30   -7.446038E-32   -2.511449E-34    1.741846E-36    3.182969E-38    2.336304E-40
         1.010042E-42
  30     1.842322E-45    9.259630E-43    2.371881E-40    3.342412E-38    1.830934E-36   -2.571855E-34   -7.320891E-32   -9.177453E-30   -7.489831E-28   -4.296419E-26
        -1.754885E-24   -5.011410E-23   -9.717911E-22   -1.342929E-20   -1.207275E-19   -7.788248E-19   -1.207312E-19   -1.343120E-20   -9.722881E-22   -5.019259E-23
        -1.761756E-24   -4.331265E-26   -7.600945E-28   -9.414696E-30   -7.673436E-32   -2.941940E-34    1.559789E-36    3.211159E-38    2.336304E-40    9.240128E-43
         1.854882E-45
  31      0.00000        1.842304E-45    1.012663E-42    2.555453E-40    3.401790E-38    1.435465E-36   -3.314481E-34   -7.706578E-32   -8.624842E-30   -6.237328E-28
        -3.075073E-26   -1.022865E-24   -2.222240E-23   -3.369874E-22   -3.492486E-21   -2.790690E-20   -3.492603E-21   -3.370449E-22   -2.223608E-23   -1.024767E-24
        -3.089451E-26   -6.299598E-28   -8.791694E-30   -7.999062E-32   -3.660255E-34    1.160118E-36    3.259993E-38    2.515052E-40    1.010042E-42    1.854882E-45
          0.00000    

 CONCENTRATION WILL BE SAVED ON UNIT 1030 AT END OF TIME STEP    3, STRESS PERIOD    2


  MASS BUDGET FOR ENTIRE MODEL AT END OF TIME STEP    3, STRESS PERIOD   2
  ---------------------------------------------------------------------------------------------------

     CUMULATIVE MASS      M       RATES FOR THIS TIME STEP      M/T          PACKAGE NAME    
     ------------------                 ------------------------                     ----------------

           IN:                                      IN:
           ---                                      ---
     STORAGE-AQUEOUS =   647663106.1097       STORAGE-AQUEOUS =     8550922.2513     MST                              
                 WEL =  7884000000.0000                   WEL =           0.0000     SSM_WEL-1                        
                 CHD =           0.0000                   CHD =           0.0000     SSM_CHD-1                        

            TOTAL IN =  8531663106.1097              TOTAL IN =     8550922.2513

          OUT:                                     OUT:
          ----                                     ----
     STORAGE-AQUEOUS =  7885259520.1323       STORAGE-AQUEOUS =       14951.5620     MST                              
                 WEL =   646403585.9774                   WEL =     8535970.6893     SSM_WEL-1                        
                 CHD =       7.5562E-18                   CHD =           0.0000     SSM_CHD-1                        

           TOTAL OUT =  8531663106.1097             TOTAL OUT =     8550922.2513

            IN - OUT =      -1.9073E-05              IN - OUT =       1.6764E-08

 PERCENT DISCREPANCY =          -0.00     PERCENT DISCREPANCY =           0.00




         TIME SUMMARY AT END OF TIME STEP    3 IN STRESS PERIOD    2
                    SECONDS     MINUTES      HOURS       DAYS        YEARS
                    -----------------------------------------------------------
   TIME STEP LENGTH 2.16991E+06  36165.      602.75      25.115     6.87602E-02
 STRESS PERIOD TIME 6.50972E+06 1.08495E+05  1808.3      75.344     0.20628    
         TOTAL TIME 8.53497E+07 1.42250E+06  23708.      987.84      2.7046    


end timestep


start timestep kper="2" kstp="4" mode="normal"

 UBDSV1 SAVING  STORAGE-AQUEOUS ON UNIT   1029 AT TIME STEP      4, STRESS PERIOD      2
 UBDSV1 SAVING     FLOW-JA-FACE ON UNIT   1029 AT TIME STEP      4, STRESS PERIOD      2
 UBDSV06 SAVING  SOURCE-SINK MIX IN MODEL GWT_P06-MF6      PACKAGE GWT_P06-MF6     CONNECTED TO MODEL GWT_P06-MF6      PACKAGE SSM              ON UNIT   1029 AT TIME STEP      4, STRESS PERIOD      2
1
  CONCENTRATION IN LAYER   1 AT END OF TIME STEP   4 IN STRESS PERIOD    2
  ---------------------------------------------------------------------------

                1               2               3               4               5               6               7               8               9              10
               11              12              13              14              15              16              17              18              19              20
               21              22              23              24              25              26              27              28              29              30
               31
 ................................................................................................................................................................................................................................................................................................................................................................................................................................................................................................................
   1      0.00000        1.985434E-45    1.067466E-42    2.620260E-40    3.303155E-38    9.520966E-37   -4.188395E-34   -8.674888E-32   -9.351601E-30   -6.617368E-28
        -3.213492E-26   -1.057552E-24   -2.283166E-23   -3.446488E-22   -3.556725E-21   -2.817728E-20   -3.556620E-21   -3.446010E-22   -2.282101E-23   -1.056076E-24
        -3.201881E-26   -6.564406E-28   -9.202243E-30   -8.400614E-32   -3.850476E-34    1.231404E-36    3.452255E-38    2.664745E-40    1.071050E-42    1.973287E-45
          0.00000    
   2     1.985434E-45    9.660188E-43    2.417411E-40    3.257289E-38    1.411937E-36   -3.382593E-34   -8.306234E-32   -1.000700E-29   -7.988852E-28   -4.512084E-26
        -1.821242E-24   -5.154661E-23   -9.938362E-22   -1.367783E-20   -1.224554E-19   -7.834988E-19   -1.224521E-19   -1.367624E-20   -9.934472E-22   -5.148553E-23
        -1.815683E-24   -4.482431E-26   -7.889521E-28   -9.785395E-30   -7.964235E-32   -3.011789E-34    1.691329E-36    3.396130E-38    2.456345E-40    9.686634E-43
         1.973271E-45
   3     1.067466E-42    2.417411E-40    3.228197E-38    1.622395E-36   -2.895440E-34   -8.038643E-32   -1.051403E-29   -9.191658E-28   -5.790553E-26   -2.681042E-24
        -9.080675E-23   -2.200930E-21   -3.728280E-20   -4.728514E-19   -3.633970E-18   -1.731393E-17   -3.633885E-18   -4.728053E-19   -3.727049E-20   -2.198698E-21
        -9.056931E-23   -2.666250E-24   -5.732359E-26   -9.037106E-28   -1.022404E-29   -7.644285E-32   -2.504246E-34    1.901028E-36    3.363589E-38    2.456565E-40
         1.071069E-42
   4     2.620260E-40    3.257289E-38    1.622395E-36   -2.729311E-34   -7.879201E-32   -1.079994E-29   -1.005688E-27   -6.865243E-26   -3.510741E-24   -1.345335E-22
        -3.811033E-21   -7.776129E-20   -1.119268E-18   -1.294032E-17   -9.160703E-17   -6.241165E-16   -9.160539E-17   -1.293932E-17   -1.118965E-18   -7.769385E-20
        -3.802433E-21   -1.339009E-22   -3.481548E-24   -6.773901E-26   -9.852271E-28   -1.046052E-29   -7.454924E-32   -2.328715E-34    1.903895E-36    3.398399E-38
         2.665541E-40
   5     3.303155E-38    1.411937E-36   -2.895440E-34   -7.879201E-32   -1.089084E-29   -1.050954E-27   -7.588100E-26   -4.178873E-24   -1.755782E-22   -5.566925E-21
        -1.303585E-19   -2.182272E-18   -2.608934E-17   -3.801365E-16   -3.833443E-15   -1.826811E-14   -3.833384E-15   -3.801163E-16   -2.608424E-17   -2.180719E-18
        -1.301058E-19   -5.544473E-21   -1.743521E-22   -4.133818E-24   -7.469031E-26   -1.027329E-27   -1.052978E-29   -7.448698E-32   -2.494368E-34    1.700208E-36
         3.457345E-38
   6     9.520966E-37   -3.382593E-34   -8.038643E-32   -1.079994E-29   -1.050954E-27   -7.843483E-26   -4.554364E-24   -2.053014E-22   -7.104585E-21   -1.852534E-19
        -3.547335E-18   -5.070079E-17   -1.065533E-15   -1.565940E-14   -9.856683E-14   -3.249139E-13   -9.856573E-14   -1.565885E-14   -1.065417E-15   -5.067658E-17
        -3.541754E-18   -1.846199E-19   -7.062916E-21   -2.034904E-22   -4.498148E-24   -7.711816E-26   -1.026870E-27   -1.044884E-29   -7.626395E-32   -2.992349E-34
         1.246915E-36
   7    -4.188395E-34   -8.306234E-32   -1.051403E-29   -1.005688E-27   -7.588100E-26   -4.554364E-24   -2.162075E-22   -8.014105E-21   -2.279775E-19   -4.887547E-18
        -8.213429E-17   -2.190291E-15   -4.085717E-14   -3.090399E-13   -6.659735E-13    1.394516E-11   -6.659750E-13   -3.090341E-13   -4.085549E-14   -2.189973E-15
        -8.204969E-17   -4.874338E-18   -2.268809E-19   -7.956990E-21   -2.141121E-22   -4.496734E-24   -7.463683E-26   -9.839957E-28   -1.020330E-29   -7.937172E-32
        -3.822419E-34
   8    -8.674888E-32   -1.000700E-29   -9.191658E-28   -6.865243E-26   -4.178873E-24   -2.053014E-22   -8.014105E-21   -2.442458E-19   -5.737932E-18   -1.097554E-16
        -3.458259E-15   -7.608670E-14   -6.651353E-13    3.690838E-12    2.630533E-10    3.732144E-09    2.630530E-10    3.690760E-12   -6.651166E-13   -7.608905E-14
        -3.457462E-15   -1.095705E-16   -5.717268E-18   -2.429010E-19   -7.955134E-21   -2.033851E-22   -4.130303E-24   -6.765373E-26   -9.020889E-28   -9.760341E-30
        -8.368303E-32
   9    -9.351601E-30   -7.988852E-28   -5.790553E-26   -3.510741E-24   -1.755782E-22   -7.104585E-21   -2.279775E-19   -5.737932E-18   -1.209256E-16   -4.324759E-15
        -1.076491E-13   -9.961780E-13    2.234059E-11    1.634503E-09    5.240762E-08    7.464344E-07    5.240763E-08    1.634502E-09    2.234040E-11   -9.961194E-13
        -1.076598E-13   -4.323439E-15   -1.206769E-16   -5.716380E-18   -2.267980E-19   -7.058720E-21   -1.742045E-22   -3.477595E-24   -5.723809E-26   -7.874088E-28
        -9.178203E-30
  10    -6.617368E-28   -4.512084E-26   -2.681042E-24   -1.345335E-22   -5.566925E-21   -1.852534E-19   -4.887547E-18   -1.097554E-16   -4.324759E-15   -1.203671E-13
        -1.167452E-12    5.369861E-11    5.103018E-09    2.721201E-07    8.634723E-06    1.170571E-04    8.634723E-06    2.721201E-07    5.103013E-09    5.369893E-11
        -1.167353E-12   -1.203852E-13   -4.323385E-15   -1.095514E-16   -4.872597E-18   -1.845219E-19   -5.540600E-21   -1.337828E-22   -2.663325E-24   -4.476315E-26
        -6.553145E-28
  11    -3.213492E-26   -1.821242E-24   -9.080675E-23   -3.811033E-21   -1.303585E-19   -3.547335E-18   -8.213429E-17   -3.458259E-15   -1.076491E-13   -1.167452E-12
         7.071037E-11    8.839501E-09    6.823696E-07    3.490256E-05    1.020721E-03    1.248443E-02    1.020721E-03    3.490255E-05    6.823697E-07    8.839485E-09
         7.071162E-11   -1.167350E-12   -1.076631E-13   -3.457377E-15   -8.203301E-17   -3.540550E-18   -1.300475E-19   -3.800343E-21   -9.050913E-23   -1.814228E-24
        -3.198757E-26
  12    -1.057552E-24   -5.154661E-23   -2.200930E-21   -7.776129E-20   -2.182272E-18   -5.070079E-17   -2.190291E-15   -7.608670E-14   -9.961780E-13    5.369861E-11
         8.839501E-09    9.161529E-07    6.649672E-05    3.019775E-03    7.435807E-02    0.721579        7.435807E-02    3.019775E-03    6.649672E-05    9.161531E-07
         8.839483E-09    5.369922E-11   -9.961120E-13   -7.609128E-14   -2.189922E-15   -5.067030E-17   -2.180290E-18   -7.767447E-20   -2.198036E-21   -5.146685E-23
        -1.055612E-24
  13    -2.283166E-23   -9.938362E-22   -3.728280E-20   -1.119268E-18   -2.608934E-17   -1.065533E-15   -4.085717E-14   -6.651353E-13    2.234059E-11    5.103018E-09
         6.823696E-07    6.649672E-05    4.188370E-03    0.149896         2.47606         13.5413         2.47606        0.149896        4.188370E-03    6.649672E-05
         6.823697E-07    5.103011E-09    2.234046E-11   -6.651141E-13   -4.085552E-14   -1.065394E-15   -2.608294E-17   -1.118882E-18   -3.726700E-20   -9.933328E-22
        -2.281777E-23
  14    -3.446488E-22   -1.367783E-20   -4.728514E-19   -1.294032E-17   -3.801365E-16   -1.565940E-14   -3.090399E-13    3.690838E-12    1.634503E-09    2.721201E-07
         3.490256E-05    3.019775E-03    0.149896         3.27420         23.9551         57.8618         23.9551         3.27420        0.149896        3.019775E-03
         3.490255E-05    2.721201E-07    1.634501E-09    3.690752E-12   -3.090334E-13   -1.565877E-14   -3.801126E-16   -1.293913E-17   -4.727959E-19   -1.367590E-20
        -3.445905E-22
  15    -3.556725E-21   -1.224554E-19   -3.633970E-18   -9.160703E-17   -3.833443E-15   -9.856683E-14   -6.659735E-13    2.630533E-10    5.240762E-08    8.634723E-06
         1.020721E-03    7.435807E-02     2.47606         23.9551         67.2000         89.2855         67.2000         23.9551         2.47606        7.435807E-02
         1.020721E-03    8.634723E-06    5.240763E-08    2.630529E-10   -6.659753E-13   -9.856557E-14   -3.833376E-15   -9.160519E-17   -3.633875E-18   -1.224517E-19
        -3.556607E-21
  16    -2.817728E-20   -7.834988E-19   -1.731393E-17   -6.241165E-16   -1.826811E-14   -3.249139E-13    1.394516E-11    3.732144E-09    7.464344E-07    1.170571E-04
         1.248443E-02    0.721579         13.5413         57.8618         89.2855         98.0626         89.2855         57.8618         13.5413        0.721579    
         1.248443E-02    1.170571E-04    7.464344E-07    3.732144E-09    1.394516E-11   -3.249139E-13   -1.826810E-14   -6.241165E-16   -1.731393E-17   -7.834988E-19
        -2.817728E-20
  17    -3.556620E-21   -1.224521E-19   -3.633885E-18   -9.160539E-17   -3.833384E-15   -9.856573E-14   -6.659750E-13    2.630530E-10    5.240763E-08    8.634723E-06
         1.020721E-03    7.435807E-02     2.47606         23.9551         67.2000         89.2855         67.2000         23.9551         2.47606        7.435807E-02
         1.020721E-03    8.634723E-06    5.240762E-08    2.630533E-10   -6.659734E-13   -9.856683E-14   -3.833443E-15   -9.160703E-17   -3.633970E-18   -1.224554E-19
        -3.556725E-21
  18    -3.446010E-22   -1.367624E-20   -4.728053E-19   -1.293932E-17   -3.801163E-16   -1.565885E-14   -3.090341E-13    3.690760E-12    1.634502E-09    2.721201E-07
         3.490255E-05    3.019775E-03    0.149896         3.27420         23.9551         57.8618         23.9551         3.27420        0.149896        3.019775E-03
         3.490256E-05    2.721201E-07    1.634503E-09    3.690838E-12   -3.090399E-13   -1.565940E-14   -3.801365E-16   -1.294032E-17   -4.728514E-19   -1.367783E-20
        -3.446488E-22
  19    -2.282101E-23   -9.934472E-22   -3.727049E-20   -1.118965E-18   -2.608424E-17   -1.065417E-15   -4.085549E-14   -6.651166E-13    2.234040E-11    5.103013E-09
         6.823697E-07    6.649672E-05    4.188370E-03    0.149896         2.47606         13.5413         2.47606        0.149896        4.188370E-03    6.649672E-05
         6.823696E-07    5.103018E-09    2.234059E-11   -6.651353E-13   -4.085717E-14   -1.065533E-15   -2.608934E-17   -1.119268E-18   -3.728280E-20   -9.938362E-22
        -2.283166E-23
  20    -1.056076E-24   -5.148553E-23   -2.198698E-21   -7.769385E-20   -2.180719E-18   -5.067658E-17   -2.189973E-15   -7.608905E-14   -9.961194E-13    5.369893E-11
         8.839485E-09    9.161531E-07    6.649672E-05    3.019775E-03    7.435807E-02    0.721579        7.435807E-02    3.019775E-03    6.649672E-05    9.161529E-07
         8.839501E-09    5.369861E-11   -9.961780E-13   -7.608670E-14   -2.190291E-15   -5.070079E-17   -2.182272E-18   -7.776129E-20   -2.200930E-21   -5.154661E-23
        -1.057552E-24
  21    -3.201881E-26   -1.815683E-24   -9.056931E-23   -3.802433E-21   -1.301058E-19   -3.541754E-18   -8.204969E-17   -3.457462E-15   -1.076598E-13   -1.167353E-12
         7.071162E-11    8.839483E-09    6.823697E-07    3.490255E-05    1.020721E-03    1.248443E-02    1.020721E-03    3.490256E-05    6.823696E-07    8.839501E-09
         7.071037E-11   -1.167452E-12   -1.076491E-13   -3.458259E-15   -8.213429E-17   -3.547335E-18   -1.303585E-19   -3.811033E-21   -9.080675E-23   -1.821242E-24
        -3.213492E-26
  22    -6.564406E-28   -4.482431E-26   -2.666250E-24   -1.339009E-22   -5.544473E-21   -1.846199E-19   -4.874338E-18   -1.095705E-16   -4.323439E-15   -1.203852E-13
        -1.167350E-12    5.369922E-11    5.103011E-09    2.721201E-07    8.634723E-06    1.170571E-04    8.634723E-06    2.721201E-07    5.103018E-09    5.369861E-11
        -1.167452E-12   -1.203671E-13   -4.324759E-15   -1.097554E-16   -4.887547E-18   -1.852534E-19   -5.566925E-21   -1.345335E-22   -2.681042E-24   -4.512084E-26
        -6.617368E-28
  23    -9.202243E-30   -7.889521E-28   -5.732359E-26   -3.481548E-24   -1.743521E-22   -7.062916E-21   -2.268809E-19   -5.717268E-18   -1.206769E-16   -4.323385E-15
        -1.076631E-13   -9.961120E-13    2.234046E-11    1.634501E-09    5.240763E-08    7.464344E-07    5.240762E-08    1.634503E-09    2.234059E-11   -9.961780E-13
        -1.076491E-13   -4.324759E-15   -1.209256E-16   -5.737932E-18   -2.279775E-19   -7.104585E-21   -1.755782E-22   -3.510741E-24   -5.790553E-26   -7.988852E-28
        -9.351601E-30
  24    -8.400614E-32   -9.785395E-30   -9.037106E-28   -6.773901E-26   -4.133818E-24   -2.034904E-22   -7.956990E-21   -2.429010E-19   -5.716380E-18   -1.095514E-16
        -3.457377E-15   -7.609128E-14   -6.651141E-13    3.690752E-12    2.630529E-10    3.732144E-09    2.630533E-10    3.690838E-12   -6.651353E-13   -7.608670E-14
        -3.458259E-15   -1.097554E-16   -5.737932E-18   -2.442458E-19   -8.014105E-21   -2.053014E-22   -4.178873E-24   -6.865243E-26   -9.191658E-28   -1.000700E-29
        -8.674887E-32
  25    -3.850476E-34   -7.964235E-32   -1.022404E-29   -9.852271E-28   -7.469031E-26   -4.498148E-24   -2.141121E-22   -7.955134E-21   -2.267980E-19   -4.872597E-18
        -8.203301E-17   -2.189922E-15   -4.085552E-14   -3.090334E-13   -6.659753E-13    1.394516E-11   -6.659734E-13   -3.090399E-13   -4.085717E-14   -2.190291E-15
        -8.213429E-17   -4.887547E-18   -2.279775E-19   -8.014105E-21   -2.162075E-22   -4.554364E-24   -7.588100E-26   -1.005688E-27   -1.051403E-29   -8.306234E-32
        -4.188395E-34
  26     1.231404E-36   -3.011789E-34   -7.644285E-32   -1.046052E-29   -1.027329E-27   -7.711816E-26   -4.496734E-24   -2.033851E-22   -7.058720E-21   -1.845219E-19
        -3.540550E-18   -5.067030E-17   -1.065394E-15   -1.565877E-14   -9.856557E-14   -3.249139E-13   -9.856683E-14   -1.565940E-14   -1.065533E-15   -5.070079E-17
        -3.547335E-18   -1.852534E-19   -7.104585E-21   -2.053014E-22   -4.554364E-24   -7.843483E-26   -1.050954E-27   -1.079994E-29   -8.038643E-32   -3.382593E-34
         9.520966E-37
  27     3.452255E-38    1.691329E-36   -2.504246E-34   -7.454924E-32   -1.052978E-29   -1.026870E-27   -7.463683E-26   -4.130303E-24   -1.742045E-22   -5.540600E-21
        -1.300475E-19   -2.180290E-18   -2.608294E-17   -3.801126E-16   -3.833376E-15   -1.826810E-14   -3.833443E-15   -3.801365E-16   -2.608934E-17   -2.182272E-18
        -1.303585E-19   -5.566925E-21   -1.755782E-22   -4.178873E-24   -7.588100E-26   -1.050954E-27   -1.089084E-29   -7.879201E-32   -2.895440E-34    1.411937E-36
         3.303155E-38
  28     2.664745E-40    3.396130E-38    1.901028E-36   -2.328715E-34   -7.448698E-32   -1.044884E-29   -9.839957E-28   -6.765373E-26   -3.477595E-24   -1.337828E-22
        -3.800343E-21   -7.767447E-20   -1.118882E-18   -1.293913E-17   -9.160519E-17   -6.241165E-16   -9.160703E-17   -1.294032E-17   -1.119268E-18   -7.776129E-20
        -3.811033E-21   -1.345335E-22   -3.510741E-24   -6.865243E-26   -1.005688E-27   -1.079994E-29   -7.879201E-32   -2.729310E-34    1.622395E-36    3.257289E-38
         2.620260E-40
  29     1.071050E-42    2.456345E-40    3.363589E-38    1.903895E-36   -2.494368E-34   -7.626395E-32   -1.020330E-29   -9.020889E-28   -5.723809E-26   -2.663325E-24
        -9.050913E-23   -2.198036E-21   -3.726700E-20   -4.727959E-19   -3.633875E-18   -1.731393E-17   -3.633970E-18   -4.728514E-19   -3.728280E-20   -2.200930E-21
        -9.080675E-23   -2.681042E-24   -5.790553E-26   -9.191658E-28   -1.051403E-29   -8.038643E-32   -2.895440E-34    1.622395E-36    3.228197E-38    2.417411E-40
         1.067466E-42
  30     1.973287E-45    9.686634E-43    2.456565E-40    3.398399E-38    1.700208E-36   -2.992349E-34   -7.937172E-32   -9.760341E-30   -7.874088E-28   -4.476315E-26
        -1.814228E-24   -5.146685E-23   -9.933328E-22   -1.367590E-20   -1.224517E-19   -7.834988E-19   -1.224554E-19   -1.367783E-20   -9.938362E-22   -5.154661E-23
        -1.821242E-24   -4.512084E-26   -7.988852E-28   -1.000700E-29   -8.306234E-32   -3.382593E-34    1.411937E-36    3.257289E-38    2.417411E-40    9.660188E-43
         1.985434E-45
  31      0.00000        1.973271E-45    1.071069E-42    2.665541E-40    3.457345E-38    1.246915E-36   -3.822419E-34   -8.368303E-32   -9.178203E-30   -6.553145E-28
        -3.198757E-26   -1.055612E-24   -2.281777E-23   -3.445905E-22   -3.556607E-21   -2.817728E-20   -3.556725E-21   -3.446488E-22   -2.283166E-23   -1.057552E-24
        -3.213492E-26   -6.617368E-28   -9.351601E-30   -8.674887E-32   -4.188395E-34    9.520966E-37    3.303155E-38    2.620260E-40    1.067466E-42    1.985434E-45
          0.00000    

 CONCENTRATION WILL BE SAVED ON UNIT 1030 AT END OF TIME STEP    4, STRESS PERIOD    2


  MASS BUDGET FOR ENTIRE MODEL AT END OF TIME STEP    4, STRESS PERIOD   2
  ---------------------------------------------------------------------------------------------------

     CUMULATIVE MASS      M       RATES FOR THIS TIME STEP      M/T          PACKAGE NAME    
     ------------------                 ------------------------                     ----------------

           IN:                                      IN:
           ---                                      ---
     STORAGE-AQUEOUS =   860798384.2096       STORAGE-AQUEOUS =     8486482.3061     MST                              
                 WEL =  7884000000.0000                   WEL =           0.0000     SSM_WEL-1                        
                 CHD =           0.0000                   CHD =           0.0000     SSM_CHD-1                        

            TOTAL IN =  8744798384.2096              TOTAL IN =     8486482.3061

          OUT:                                     OUT:
          ----                                     ----
     STORAGE-AQUEOUS =  7885608001.0916       STORAGE-AQUEOUS =       13875.5889     MST                              
                 WEL =   859190383.1180                   WEL =     8472606.7172     SSM_WEL-1                        
                 CHD =       7.5562E-18                   CHD =           0.0000     SSM_CHD-1                        

           TOTAL OUT =  8744798384.2096             TOTAL OUT =     8486482.3061

            IN - OUT =      -1.7166E-05              IN - OUT =       5.9605E-08

 PERCENT DISCREPANCY =          -0.00     PERCENT DISCREPANCY =           0.00




         TIME SUMMARY AT END OF TIME STEP    4 IN STRESS PERIOD    2
                    SECONDS     MINUTES      HOURS       DAYS        YEARS
                    -----------------------------------------------------------
   TIME STEP LENGTH 2.16991E+06  36165.      602.75      25.115     6.87602E-02
 STRESS PERIOD TIME 8.67963E+06 1.44661E+05  2411.0      100.46     0.27504    
         TOTAL TIME 8.75196E+07 1.45866E+06  24311.      1013.0      2.7733    


end timestep


start timestep kper="2" kstp="5" mode="normal"

 UBDSV1 SAVING  STORAGE-AQUEOUS ON UNIT   1029 AT TIME STEP      5, STRESS PERIOD      2
 UBDSV1 SAVING     FLOW-JA-FACE ON UNIT   1029 AT TIME STEP      5, STRESS PERIOD      2
 UBDSV06 SAVING  SOURCE-SINK MIX IN MODEL GWT_P06-MF6      PACKAGE GWT_P06-MF6     CONNECTED TO MODEL GWT_P06-MF6      PACKAGE SSM              ON UNIT   1029 AT TIME STEP      5, STRESS PERIOD      2
1
  CONCENTRATION IN LAYER   1 AT END OF TIME STEP   5 IN STRESS PERIOD    2
  ---------------------------------------------------------------------------

                1               2               3               4               5               6               7               8               9              10
               11              12              13              14              15              16              17              18              19              20
               21              22              23              24              25              26              27              28              29              30
               31
 ................................................................................................................................................................................................................................................................................................................................................................................................................................................................................................................
   1      0.00000        2.122622E-45    1.127024E-42    2.726520E-40    3.337339E-38    7.164982E-37   -4.758883E-34   -9.392174E-32   -9.939072E-30   -6.947754E-28
        -3.341480E-26   -1.091180E-24   -2.343976E-23   -3.523815E-22   -3.621582E-21   -2.844864E-20   -3.621475E-21   -3.523331E-22   -2.342893E-23   -1.089675E-24
        -3.329584E-26   -6.893159E-28   -9.783986E-30   -9.105000E-32   -4.401724E-34    1.015028E-36    3.499074E-38    2.776136E-40    1.131682E-42    2.111008E-45
          0.00000    
   2     2.122622E-45    1.009437E-42    2.499439E-40    3.297874E-38    1.244334E-36   -3.857479E-34   -8.977062E-32   -1.062842E-29   -8.392469E-28   -4.698855E-26
        -1.882285E-24   -5.292848E-23   -1.015733E-21   -1.392737E-20   -1.241934E-19   -7.882424E-19   -1.241901E-19   -1.392576E-20   -1.015339E-21   -5.286642E-23
        -1.876612E-24   -4.668430E-26   -8.289938E-28   -1.039820E-29   -8.619351E-32   -3.466853E-34    1.541050E-36    3.446937E-38    2.542172E-40    1.012843E-42
         2.110994E-45
   3     1.127024E-42    2.499439E-40    3.268900E-38    1.486992E-36   -3.308319E-34   -8.665870E-32   -1.114860E-29   -9.649996E-28   -6.031686E-26   -2.773260E-24
        -9.332590E-23   -2.248893E-21   -3.793096E-20   -4.792289E-19   -3.673881E-18   -1.748387E-17   -3.673796E-18   -4.791824E-19   -3.791854E-20   -2.246634E-21
        -9.308449E-23   -2.758146E-24   -5.971908E-26   -9.490372E-28   -1.084745E-29   -8.254076E-32   -2.897468E-34    1.781644E-36    3.413626E-38    2.542425E-40
         1.131715E-42
   4     2.726520E-40    3.297874E-38    1.486992E-36   -3.120064E-34   -8.478056E-32   -1.143324E-29   -1.054735E-27   -7.147995E-26   -3.631838E-24   -1.383303E-22
        -3.895801E-21   -7.906552E-20   -1.134198E-18   -1.306823E-17   -9.323421E-17   -6.276640E-16   -9.323255E-17   -1.306722E-17   -1.133893E-18   -7.899754E-20
        -3.887093E-21   -1.376866E-22   -3.601982E-24   -7.054110E-26   -1.033603E-27   -1.108099E-29   -8.035555E-32   -2.699849E-34    1.784717E-36    3.449429E-38
         2.777070E-40
   5     3.337339E-38    1.244334E-36   -3.308319E-34   -8.478056E-32   -1.152176E-29   -1.101389E-27   -7.896332E-26   -4.321966E-24   -1.805455E-22   -5.692562E-21
        -1.325924E-19   -2.211505E-18   -2.664560E-17   -3.875376E-16   -3.857119E-15   -1.823240E-14   -3.857059E-15   -3.875173E-16   -2.664047E-17   -2.209946E-18
        -1.323377E-19   -5.669813E-21   -1.792969E-22   -4.275861E-24   -7.773918E-26   -1.076990E-27   -1.114715E-29   -8.029017E-32   -2.886995E-34    1.550617E-36
         3.504735E-38
   6     7.164982E-37   -3.857479E-34   -8.665870E-32   -1.143324E-29   -1.101389E-27   -8.160188E-26   -4.709266E-24   -2.110916E-22   -7.265890E-21   -1.885108E-19
        -3.598879E-18   -5.204851E-17   -1.086967E-15   -1.569653E-14   -9.771719E-14   -3.093763E-13   -9.771609E-14   -1.569597E-14   -1.086852E-15   -5.202438E-17
        -3.593280E-18   -1.878719E-19   -7.223646E-21   -2.092465E-22   -4.651723E-24   -8.024809E-26   -1.076515E-27   -1.106881E-29   -8.235267E-32   -3.446172E-34
         1.031863E-36
   7    -4.758883E-34   -8.977062E-32   -1.114860E-29   -1.054735E-27   -7.896332E-26   -4.709266E-24   -2.222940E-22   -8.196345E-21   -2.320501E-19   -4.962800E-18
        -8.452332E-17   -2.233674E-15   -4.083906E-14   -3.018740E-13   -3.900776E-13    1.730981E-11   -3.900794E-13   -3.018684E-13   -4.083739E-14   -2.233361E-15
        -8.443936E-17   -4.949548E-18   -2.309438E-19   -8.138422E-21   -2.201588E-22   -4.650272E-24   -7.768405E-26   -1.032326E-27   -1.082581E-29   -8.590850E-32
        -4.371770E-34
   8    -9.392174E-32   -1.062842E-29   -9.649996E-28   -7.147995E-26   -4.321966E-24   -2.110916E-22   -8.196345E-21   -2.486315E-19   -5.828715E-18   -1.130614E-16
        -3.524264E-15   -7.583188E-14   -6.293320E-13    5.576773E-12    3.174191E-10    4.448314E-09    3.174187E-10    5.576695E-12   -6.293138E-13   -7.583412E-14
        -3.523488E-15   -1.128781E-16   -5.807981E-18   -2.472746E-19   -8.136538E-21   -2.091391E-22   -4.272257E-24   -7.045321E-26   -9.473563E-28   -1.037205E-29
        -9.070948E-32
   9    -9.939072E-30   -8.392469E-28   -6.031686E-26   -3.631838E-24   -1.805455E-22   -7.265890E-21   -2.320501E-19   -5.828715E-18   -1.246017E-16   -4.404614E-15
        -1.070265E-13   -9.016282E-13    2.917041E-11    1.967320E-09    6.218024E-08    8.658178E-07    6.218024E-08    1.967319E-09    2.917022E-11   -9.015704E-13
        -1.070368E-13   -4.403334E-15   -1.243555E-16   -5.807090E-18   -2.308602E-19   -7.219388E-21   -1.791465E-22   -3.597933E-24   -5.963107E-26   -8.273960E-28
        -9.758925E-30
  10    -6.947754E-28   -4.698855E-26   -2.773260E-24   -1.383303E-22   -5.692562E-21   -1.885108E-19   -4.962800E-18   -1.130614E-16   -4.404614E-15   -1.195571E-13
        -1.016817E-12    6.805047E-11    6.116469E-09    3.197826E-07    9.887199E-06    1.302445E-04    9.887199E-06    3.197827E-07    6.116464E-09    6.805078E-11
        -1.016718E-12   -1.195747E-13   -4.403284E-15   -1.128593E-16   -4.947802E-18   -1.877731E-19   -5.665887E-21   -1.375663E-22   -2.755154E-24   -4.662145E-26
        -6.881528E-28
  11    -3.341480E-26   -1.882285E-24   -9.332590E-23   -3.895801E-21   -1.325924E-19   -3.598879E-18   -8.452332E-17   -3.524264E-15   -1.070265E-13   -1.016817E-12
         8.900336E-11    1.056282E-08    7.959693E-07    3.948559E-05    1.116622E-03    1.318198E-02    1.116622E-03    3.948559E-05    7.959694E-07    1.056280E-08
         8.900455E-11   -1.016715E-12   -1.070401E-13   -3.523408E-15   -8.442286E-17   -3.592073E-18   -1.322789E-19   -3.884977E-21   -9.302331E-23   -1.875126E-24
        -3.326382E-26
  12    -1.091180E-24   -5.292848E-23   -2.248893E-21   -7.906552E-20   -2.211505E-18   -5.204851E-17   -2.233674E-15   -7.583188E-14   -9.016282E-13    6.805047E-11
         1.056282E-08    1.066088E-06    7.471018E-05    3.260830E-03    7.699336E-02    0.719563        7.699336E-02    3.260830E-03    7.471018E-05    1.066089E-06
         1.056280E-08    6.805105E-11   -9.015628E-13   -7.583629E-14   -2.233313E-15   -5.201815E-17   -2.209516E-18   -7.897801E-20   -2.245964E-21   -5.284744E-23
        -1.089203E-24
  13    -2.343976E-23   -1.015733E-21   -3.793096E-20   -1.134198E-18   -2.664560E-17   -1.086967E-15   -4.083906E-14   -6.293320E-13    2.917041E-11    6.116469E-09
         7.959693E-07    7.471018E-05    4.504808E-03    0.153504         2.43642         13.0727         2.43642        0.153504        4.504808E-03    7.471018E-05
         7.959694E-07    6.116463E-09    2.917027E-11   -6.293112E-13   -4.083742E-14   -1.086829E-15   -2.663918E-17   -1.133810E-18   -3.791502E-20   -1.015223E-21
        -2.342564E-23
  14    -3.523815E-22   -1.392737E-20   -4.792289E-19   -1.306823E-17   -3.875376E-16   -1.569653E-14   -3.018740E-13    5.576773E-12    1.967320E-09    3.197826E-07
         3.948559E-05    3.260830E-03    0.153504         3.20235         23.0037         55.6922         23.0037         3.20235        0.153504        3.260830E-03
         3.948559E-05    3.197827E-07    1.967319E-09    5.576687E-12   -3.018677E-13   -1.569590E-14   -3.875136E-16   -1.306703E-17   -4.791730E-19   -1.392542E-20
        -3.523225E-22
  15    -3.621582E-21   -1.241934E-19   -3.673881E-18   -9.323421E-17   -3.857119E-15   -9.771719E-14   -3.900776E-13    3.174191E-10    6.218024E-08    9.887199E-06
         1.116622E-03    7.699336E-02     2.43642         23.0037         64.9232         87.1771         64.9232         23.0037         2.43642        7.699336E-02
         1.116622E-03    9.887199E-06    6.218024E-08    3.174187E-10   -3.900798E-13   -9.771594E-14   -3.857051E-15   -9.323235E-17   -3.673786E-18   -1.241897E-19
        -3.621463E-21
  16    -2.844864E-20   -7.882424E-19   -1.748387E-17   -6.276640E-16   -1.823240E-14   -3.093763E-13    1.730981E-11    4.448314E-09    8.658178E-07    1.302445E-04
         1.318198E-02    0.719563         13.0727         55.6922         87.1771         97.1452         87.1771         55.6922         13.0727        0.719563    
         1.318198E-02    1.302445E-04    8.658178E-07    4.448314E-09    1.730981E-11   -3.093763E-13   -1.823240E-14   -6.276641E-16   -1.748388E-17   -7.882424E-19
        -2.844864E-20
  17    -3.621475E-21   -1.241901E-19   -3.673796E-18   -9.323255E-17   -3.857059E-15   -9.771609E-14   -3.900794E-13    3.174187E-10    6.218024E-08    9.887199E-06
         1.116622E-03    7.699336E-02     2.43642         23.0037         64.9232         87.1771         64.9232         23.0037         2.43642        7.699336E-02
         1.116622E-03    9.887199E-06    6.218024E-08    3.174191E-10   -3.900776E-13   -9.771718E-14   -3.857119E-15   -9.323421E-17   -3.673881E-18   -1.241934E-19
        -3.621582E-21
  18    -3.523331E-22   -1.392576E-20   -4.791824E-19   -1.306722E-17   -3.875173E-16   -1.569597E-14   -3.018684E-13    5.576695E-12    1.967319E-09    3.197827E-07
         3.948559E-05    3.260830E-03    0.153504         3.20235         23.0037         55.6922         23.0037         3.20235        0.153504        3.260830E-03
         3.948559E-05    3.197826E-07    1.967320E-09    5.576773E-12   -3.018740E-13   -1.569653E-14   -3.875376E-16   -1.306823E-17   -4.792289E-19   -1.392737E-20
        -3.523815E-22
  19    -2.342893E-23   -1.015339E-21   -3.791854E-20   -1.133893E-18   -2.664047E-17   -1.086852E-15   -4.083739E-14   -6.293138E-13    2.917022E-11    6.116464E-09
         7.959694E-07    7.471018E-05    4.504808E-03    0.153504         2.43642         13.0727         2.43642        0.153504        4.504808E-03    7.471018E-05
         7.959693E-07    6.116469E-09    2.917041E-11   -6.293320E-13   -4.083906E-14   -1.086967E-15   -2.664560E-17   -1.134198E-18   -3.793096E-20   -1.015733E-21
        -2.343976E-23
  20    -1.089675E-24   -5.286642E-23   -2.246634E-21   -7.899754E-20   -2.209946E-18   -5.202438E-17   -2.233361E-15   -7.583412E-14   -9.015704E-13    6.805078E-11
         1.056280E-08    1.066089E-06    7.471018E-05    3.260830E-03    7.699336E-02    0.719563        7.699336E-02    3.260830E-03    7.471018E-05    1.066088E-06
         1.056282E-08    6.805047E-11   -9.016282E-13   -7.583188E-14   -2.233674E-15   -5.204851E-17   -2.211505E-18   -7.906552E-20   -2.248893E-21   -5.292848E-23
        -1.091180E-24
  21    -3.329584E-26   -1.876612E-24   -9.308449E-23   -3.887093E-21   -1.323377E-19   -3.593280E-18   -8.443936E-17   -3.523488E-15   -1.070368E-13   -1.016718E-12
         8.900455E-11    1.056280E-08    7.959694E-07    3.948559E-05    1.116622E-03    1.318198E-02    1.116622E-03    3.948559E-05    7.959693E-07    1.056282E-08
         8.900336E-11   -1.016817E-12   -1.070265E-13   -3.524264E-15   -8.452332E-17   -3.598879E-18   -1.325924E-19   -3.895801E-21   -9.332589E-23   -1.882285E-24
        -3.341480E-26
  22    -6.893159E-28   -4.668430E-26   -2.758146E-24   -1.376866E-22   -5.669813E-21   -1.878719E-19   -4.949548E-18   -1.128781E-16   -4.403334E-15   -1.195747E-13
        -1.016715E-12    6.805105E-11    6.116463E-09    3.197827E-07    9.887199E-06    1.302445E-04    9.887199E-06    3.197826E-07    6.116469E-09    6.805047E-11
        -1.016817E-12   -1.195571E-13   -4.404614E-15   -1.130614E-16   -4.962800E-18   -1.885108E-19   -5.692562E-21   -1.383303E-22   -2.773260E-24   -4.698855E-26
        -6.947754E-28
  23    -9.783986E-30   -8.289938E-28   -5.971908E-26   -3.601982E-24   -1.792969E-22   -7.223646E-21   -2.309438E-19   -5.807981E-18   -1.243555E-16   -4.403284E-15
        -1.070401E-13   -9.015628E-13    2.917027E-11    1.967319E-09    6.218024E-08    8.658178E-07    6.218024E-08    1.967320E-09    2.917041E-11   -9.016282E-13
        -1.070265E-13   -4.404614E-15   -1.246017E-16   -5.828715E-18   -2.320501E-19   -7.265890E-21   -1.805455E-22   -3.631838E-24   -6.031686E-26   -8.392469E-28
        -9.939072E-30
  24    -9.105000E-32   -1.039820E-29   -9.490372E-28   -7.054110E-26   -4.275861E-24   -2.092465E-22   -8.138422E-21   -2.472746E-19   -5.807090E-18   -1.128593E-16
        -3.523408E-15   -7.583629E-14   -6.293112E-13    5.576687E-12    3.174187E-10    4.448314E-09    3.174191E-10    5.576773E-12   -6.293320E-13   -7.583188E-14
        -3.524264E-15   -1.130614E-16   -5.828715E-18   -2.486315E-19   -8.196345E-21   -2.110916E-22   -4.321966E-24   -7.147995E-26   -9.649996E-28   -1.062842E-29
        -9.392174E-32
  25    -4.401724E-34   -8.619351E-32   -1.084745E-29   -1.033603E-27   -7.773918E-26   -4.651723E-24   -2.201588E-22   -8.136538E-21   -2.308602E-19   -4.947802E-18
        -8.442286E-17   -2.233313E-15   -4.083742E-14   -3.018677E-13   -3.900798E-13    1.730981E-11   -3.900776E-13   -3.018740E-13   -4.083906E-14   -2.233674E-15
        -8.452332E-17   -4.962800E-18   -2.320501E-19   -8.196345E-21   -2.222940E-22   -4.709266E-24   -7.896332E-26   -1.054735E-27   -1.114860E-29   -8.977062E-32
        -4.758883E-34
  26     1.015028E-36   -3.466853E-34   -8.254076E-32   -1.108099E-29   -1.076990E-27   -8.024809E-26   -4.650272E-24   -2.091391E-22   -7.219388E-21   -1.877731E-19
        -3.592073E-18   -5.201815E-17   -1.086829E-15   -1.569590E-14   -9.771594E-14   -3.093763E-13   -9.771718E-14   -1.569653E-14   -1.086967E-15   -5.204851E-17
        -3.598879E-18   -1.885108E-19   -7.265890E-21   -2.110916E-22   -4.709266E-24   -8.160188E-26   -1.101389E-27   -1.143324E-29   -8.665870E-32   -3.857479E-34
         7.164983E-37
  27     3.499074E-38    1.541050E-36   -2.897468E-34   -8.035555E-32   -1.114715E-29   -1.076515E-27   -7.768405E-26   -4.272257E-24   -1.791465E-22   -5.665887E-21
        -1.322789E-19   -2.209516E-18   -2.663918E-17   -3.875136E-16   -3.857051E-15   -1.823240E-14   -3.857119E-15   -3.875376E-16   -2.664560E-17   -2.211505E-18
        -1.325924E-19   -5.692562E-21   -1.805455E-22   -4.321966E-24   -7.896332E-26   -1.101389E-27   -1.152176E-29   -8.478056E-32   -3.308319E-34    1.244334E-36
         3.337339E-38
  28     2.776136E-40    3.446937E-38    1.781644E-36   -2.699849E-34   -8.029017E-32   -1.106881E-29   -1.032326E-27   -7.045321E-26   -3.597933E-24   -1.375663E-22
        -3.884977E-21   -7.897801E-20   -1.133810E-18   -1.306703E-17   -9.323235E-17   -6.276641E-16   -9.323421E-17   -1.306823E-17   -1.134198E-18   -7.906552E-20
        -3.895801E-21   -1.383303E-22   -3.631838E-24   -7.147995E-26   -1.054735E-27   -1.143324E-29   -8.478056E-32   -3.120064E-34    1.486992E-36    3.297874E-38
         2.726520E-40
  29     1.131682E-42    2.542172E-40    3.413626E-38    1.784717E-36   -2.886995E-34   -8.235267E-32   -1.082581E-29   -9.473563E-28   -5.963107E-26   -2.755154E-24
        -9.302331E-23   -2.245964E-21   -3.791502E-20   -4.791730E-19   -3.673786E-18   -1.748388E-17   -3.673881E-18   -4.792289E-19   -3.793096E-20   -2.248893E-21
        -9.332589E-23   -2.773260E-24   -6.031686E-26   -9.649996E-28   -1.114860E-29   -8.665870E-32   -3.308319E-34    1.486992E-36    3.268901E-38    2.499439E-40
         1.127024E-42
  30     2.111008E-45    1.012843E-42    2.542425E-40    3.449429E-38    1.550617E-36   -3.446172E-34   -8.590850E-32   -1.037205E-29   -8.273960E-28   -4.662145E-26
        -1.875126E-24   -5.284744E-23   -1.015223E-21   -1.392542E-20   -1.241897E-19   -7.882424E-19   -1.241934E-19   -1.392737E-20   -1.015733E-21   -5.292848E-23
        -1.882285E-24   -4.698855E-26   -8.392469E-28   -1.062842E-29   -8.977062E-32   -3.857479E-34    1.244334E-36    3.297874E-38    2.499439E-40    1.009437E-42
         2.122622E-45
  31      0.00000        2.110994E-45    1.131715E-42    2.777070E-40    3.504735E-38    1.031863E-36   -4.371770E-34   -9.070948E-32   -9.758925E-30   -6.881528E-28
        -3.326382E-26   -1.089203E-24   -2.342564E-23   -3.523225E-22   -3.621463E-21   -2.844864E-20   -3.621582E-21   -3.523815E-22   -2.343976E-23   -1.091180E-24
        -3.341480E-26   -6.947754E-28   -9.939072E-30   -9.392174E-32   -4.758883E-34    7.164983E-37    3.337339E-38    2.726520E-40    1.127024E-42    2.122622E-45
          0.00000    

 CONCENTRATION WILL BE SAVED ON UNIT 1030 AT END OF TIME STEP    5, STRESS PERIOD    2


  MASS BUDGET FOR ENTIRE MODEL AT END OF TIME STEP    5, STRESS PERIOD   2
  ---------------------------------------------------------------------------------------------------

     CUMULATIVE MASS      M       RATES FOR THIS TIME STEP      M/T          PACKAGE NAME    
     ------------------                 ------------------------                     ----------------

           IN:                                      IN:
           ---                                      ---
     STORAGE-AQUEOUS =  1071917066.6076       STORAGE-AQUEOUS =     8406186.8060     MST                              
                 WEL =  7884000000.0000                   WEL =           0.0000     SSM_WEL-1                        
                 CHD =           0.0000                   CHD =           0.0000     SSM_CHD-1                        

            TOTAL IN =  8955917066.6076              TOTAL IN =     8406186.8060

          OUT:                                     OUT:
          ----                                     ----
     STORAGE-AQUEOUS =  7885930429.9752       STORAGE-AQUEOUS =       12838.2642     MST                              
                 WEL =  1069986636.6324                   WEL =     8393348.5418     SSM_WEL-1                        
                 CHD =       7.5562E-18                   CHD =           0.0000     SSM_CHD-1                        

           TOTAL OUT =  8955917066.6076             TOTAL OUT =     8406186.8060

            IN - OUT =      -1.7166E-05              IN - OUT =       3.3528E-08

 PERCENT DISCREPANCY =          -0.00     PERCENT DISCREPANCY =           0.00




         TIME SUMMARY AT END OF TIME STEP    5 IN STRESS PERIOD    2
                    SECONDS     MINUTES      HOURS       DAYS        YEARS
                    -----------------------------------------------------------
   TIME STEP LENGTH 2.16991E+06  36165.      602.75      25.115     6.87602E-02
 STRESS PERIOD TIME 1.08495E+07 1.80826E+05  3013.8      125.57     0.34380    
         TOTAL TIME 8.96895E+07 1.49483E+06  24914.      1038.1      2.8421    


end timestep


start timestep kper="2" kstp="6" mode="normal"

 UBDSV1 SAVING  STORAGE-AQUEOUS ON UNIT   1029 AT TIME STEP      6, STRESS PERIOD      2
 UBDSV1 SAVING     FLOW-JA-FACE ON UNIT   1029 AT TIME STEP      6, STRESS PERIOD      2
 UBDSV06 SAVING  SOURCE-SINK MIX IN MODEL GWT_P06-MF6      PACKAGE GWT_P06-MF6     CONNECTED TO MODEL GWT_P06-MF6      PACKAGE SSM              ON UNIT   1029 AT TIME STEP      6, STRESS PERIOD      2
1
  CONCENTRATION IN LAYER   1 AT END OF TIME STEP   6 IN STRESS PERIOD    2
  ---------------------------------------------------------------------------

                1               2               3               4               5               6               7               8               9              10
               11              12              13              14              15              16              17              18              19              20
               21              22              23              24              25              26              27              28              29              30
               31
 ................................................................................................................................................................................................................................................................................................................................................................................................................................................................................................................
   1      0.00000        2.266675E-45    1.188732E-42    2.833553E-40    3.361445E-38    4.512186E-37   -5.374223E-34   -1.015291E-31   -1.055518E-29   -7.291150E-28
        -3.473513E-26   -1.125668E-24   -2.406055E-23   -3.602444E-22   -3.687177E-21   -2.872099E-20   -3.687068E-21   -3.601953E-22   -2.404954E-23   -1.124134E-24
        -3.461327E-26   -7.234882E-28   -1.039419E-29   -9.852345E-32   -4.996950E-34    7.700096E-37    3.536628E-38    2.888700E-40    1.194574E-42    2.255725E-45
          0.00000    
   2     2.266675E-45    1.054280E-42    2.582238E-40    3.332241E-38    1.055521E-36   -4.368574E-34   -9.687727E-32   -1.128012E-29   -8.812299E-28   -4.891729E-26
        -1.944915E-24   -5.433861E-23   -1.037981E-21   -1.417982E-20   -1.259456E-19   -7.930550E-19   -1.259423E-19   -1.417819E-20   -1.037582E-21   -5.427554E-23
        -1.939126E-24   -4.860515E-26   -8.706484E-28   -1.104100E-29   -9.313712E-32   -3.957252E-34    1.370444E-36    3.492127E-38    2.629035E-40    1.058520E-42
         2.255714E-45
   3     1.188732E-42    2.582238E-40    3.304531E-38    1.334488E-36   -3.751715E-34   -9.329338E-32   -1.181360E-29   -1.012672E-27   -6.280805E-26   -2.867930E-24
        -9.589665E-23   -2.297589E-21   -3.858674E-20   -4.856610E-19   -3.714587E-18   -1.765382E-17   -3.714502E-18   -4.856142E-19   -3.857421E-20   -2.295302E-21
        -9.565124E-23   -2.852489E-24   -6.219411E-26   -9.961885E-28   -1.150093E-29   -8.899457E-32   -3.320365E-34    1.645942E-36    3.459120E-38    2.629324E-40
         1.194624E-42
   4     2.833553E-40    3.332241E-38    1.334488E-36   -3.539306E-34   -9.110832E-32   -1.209636E-29   -1.105729E-27   -7.440100E-26   -3.756187E-24   -1.422062E-22
        -3.981857E-21   -8.038559E-20   -1.149430E-18   -1.320001E-17   -9.485614E-17   -6.311385E-16   -9.485446E-17   -1.319901E-17   -1.149124E-18   -8.031705E-20
        -3.973039E-21   -1.415513E-22   -3.725657E-24   -7.343617E-26   -1.083906E-27   -1.173087E-29   -8.649435E-32   -3.098644E-34    1.649234E-36    3.494860E-38
         2.889786E-40
   5     3.361445E-38    1.055521E-36   -3.751715E-34   -9.110832E-32   -1.218217E-29   -1.153807E-27   -8.214702E-26   -4.468903E-24   -1.856172E-22   -5.820158E-21
        -1.348557E-19   -2.241663E-18   -2.721166E-17   -3.948657E-16   -3.880037E-15   -1.818512E-14   -3.879978E-15   -3.948452E-16   -2.720653E-17   -2.240100E-18
        -1.345990E-19   -5.797110E-21   -1.843460E-22   -4.421729E-24   -8.088869E-26   -1.128614E-27   -1.179358E-29   -8.642573E-32   -3.309268E-34    1.380740E-36
         3.542905E-38
   6     4.512186E-37   -4.368574E-34   -9.329338E-32   -1.209636E-29   -1.153807E-27   -8.487279E-26   -4.868322E-24   -2.170043E-22   -7.429773E-21   -1.918149E-19
        -3.652268E-18   -5.341568E-17   -1.108049E-15   -1.572653E-14   -9.708961E-14   -2.910240E-13   -9.708852E-14   -1.572598E-14   -1.107934E-15   -5.339163E-17
        -3.646653E-18   -1.911707E-19   -7.386950E-21   -2.151247E-22   -4.809428E-24   -8.348104E-26   -1.128121E-27   -1.171817E-29   -8.879689E-32   -3.935266E-34
         7.882535E-37
   7    -5.374223E-34   -9.687727E-32   -1.181360E-29   -1.105729E-27   -8.214702E-26   -4.868322E-24   -2.285094E-22   -8.381538E-21   -2.361842E-19   -5.040868E-18
        -8.694132E-17   -2.276035E-15   -4.078401E-14   -2.928438E-13   -6.196001E-14    2.128409E-11   -6.196195E-14   -2.928383E-13   -4.078234E-14   -2.275727E-15
        -8.685799E-17   -5.027574E-18   -2.350683E-19   -8.322801E-21   -2.263339E-22   -4.807940E-24   -8.083185E-26   -1.082583E-27   -1.147835E-29   -9.283711E-32
        -4.965001E-34
   8    -1.015291E-31   -1.128012E-29   -1.012672E-27   -7.440100E-26   -4.468903E-24   -2.170043E-22   -8.381538E-21   -2.530846E-19   -5.922942E-18   -1.164018E-16
        -3.588255E-15   -7.546848E-14   -5.854453E-13    7.812860E-12    3.813405E-10    5.269981E-09    3.813402E-10    7.812783E-12   -5.854276E-13   -7.547061E-14
        -3.587499E-15   -1.162203E-16   -5.902140E-18   -2.517156E-19   -8.320888E-21   -2.150151E-22   -4.418034E-24   -7.334561E-26   -9.944468E-28   -1.101372E-29
        -9.816479E-32
   9    -1.055518E-29   -8.812299E-28   -6.280805E-26   -3.756187E-24   -1.856172E-22   -7.429773E-21   -2.361842E-19   -5.922942E-18   -1.283137E-16   -4.481670E-15
        -1.062049E-13   -7.868808E-13    3.726155E-11    2.354889E-09    7.324162E-08    9.968501E-07    7.324163E-08    2.354888E-09    3.726135E-11   -7.868237E-13
        -1.062148E-13   -4.480429E-15   -1.280699E-16   -5.901246E-18   -2.349839E-19   -7.382631E-21   -1.841926E-22   -3.721509E-24   -6.210353E-26   -8.689948E-28
        -1.036807E-29
  10    -7.291150E-28   -4.891729E-26   -2.867930E-24   -1.422062E-22   -5.820158E-21   -1.918149E-19   -5.040868E-18   -1.164018E-16   -4.481670E-15   -1.185053E-13
        -8.346125E-13    8.501631E-11    7.287709E-09    3.730897E-07    1.123832E-05    1.439232E-04    1.123832E-05    3.730898E-07    7.287705E-09    8.501659E-11
        -8.345141E-13   -1.185224E-13   -4.480382E-15   -1.162017E-16   -5.025822E-18   -1.910710E-19   -5.793131E-21   -1.414288E-22   -2.849429E-24   -4.854058E-26
        -7.222871E-28
  11    -3.473513E-26   -1.944915E-24   -9.589665E-23   -3.981857E-21   -1.348557E-19   -3.652268E-18   -8.694132E-17   -3.588255E-15   -1.062049E-13   -8.346125E-13
         1.106083E-10    1.254681E-08    9.220409E-07    4.436155E-05    1.213943E-03    1.385460E-02    1.213943E-03    4.436155E-05    9.220410E-07    1.254679E-08
         1.106094E-10   -8.345111E-13   -1.062181E-13   -3.587424E-15   -8.684167E-17   -3.645442E-18   -1.345397E-19   -3.970896E-21   -9.558903E-23   -1.937609E-24
        -3.458046E-26
  12    -1.125668E-24   -5.433861E-23   -2.297589E-21   -8.038559E-20   -2.241663E-18   -5.341568E-17   -2.276035E-15   -7.546848E-14   -7.868808E-13    8.501631E-11
         1.254681E-08    1.232035E-06    8.338638E-05    3.501479E-03    7.945391E-02    0.716820        7.945391E-02    3.501479E-03    8.338638E-05    1.232035E-06
         1.254679E-08    8.501685E-11   -7.868161E-13   -7.547274E-14   -2.275681E-15   -5.338545E-17   -2.239669E-18   -8.029739E-20   -2.294624E-21   -5.425628E-23
        -1.123652E-24
  13    -2.406055E-23   -1.037981E-21   -3.858674E-20   -1.149430E-18   -2.721166E-17   -1.108049E-15   -4.078401E-14   -5.854453E-13    3.726155E-11    7.287709E-09
         9.220409E-07    8.338638E-05    4.818607E-03    0.156745         2.39604         12.6217         2.39604        0.156745        4.818607E-03    8.338638E-05
         9.220410E-07    7.287703E-09    3.726141E-11   -5.854250E-13   -4.078237E-14   -1.107911E-15   -2.720523E-17   -1.149041E-18   -3.857067E-20   -1.037465E-21
        -2.404620E-23
  14    -3.602444E-22   -1.417982E-20   -4.856610E-19   -1.320001E-17   -3.948657E-16   -1.572653E-14   -2.928438E-13    7.812860E-12    2.354889E-09    3.730897E-07
         4.436155E-05    3.501479E-03    0.156745         3.13083         22.0948         53.5945         22.0948         3.13083        0.156745        3.501479E-03
         4.436155E-05    3.730898E-07    2.354887E-09    7.812774E-12   -2.928376E-13   -1.572591E-14   -3.948415E-16   -1.319881E-17   -4.856047E-19   -1.417785E-20
        -3.601845E-22
  15    -3.687177E-21   -1.259456E-19   -3.714587E-18   -9.485614E-17   -3.880037E-15   -9.708961E-14   -6.196001E-14    3.813405E-10    7.324162E-08    1.123832E-05
         1.213943E-03    7.945391E-02     2.39604         22.0948         62.7041         84.9911         62.7041         22.0948         2.39604        7.945391E-02
         1.213943E-03    1.123832E-05    7.324163E-08    3.813401E-10   -6.196238E-14   -9.708837E-14   -3.879970E-15   -9.485425E-17   -3.714492E-18   -1.259419E-19
        -3.687056E-21
  16    -2.872099E-20   -7.930550E-19   -1.765382E-17   -6.311385E-16   -1.818512E-14   -2.910240E-13    2.128409E-11    5.269981E-09    9.968501E-07    1.439232E-04
         1.385460E-02    0.716820         12.6217         53.5945         84.9911         96.0439         84.9911         53.5945         12.6217        0.716820    
         1.385460E-02    1.439232E-04    9.968501E-07    5.269981E-09    2.128409E-11   -2.910240E-13   -1.818512E-14   -6.311385E-16   -1.765382E-17   -7.930550E-19
        -2.872099E-20
  17    -3.687068E-21   -1.259423E-19   -3.714502E-18   -9.485446E-17   -3.879978E-15   -9.708852E-14   -6.196195E-14    3.813402E-10    7.324163E-08    1.123832E-05
         1.213943E-03    7.945391E-02     2.39604         22.0948         62.7041         84.9911         62.7041         22.0948         2.39604        7.945391E-02
         1.213943E-03    1.123832E-05    7.324162E-08    3.813405E-10   -6.195994E-14   -9.708960E-14   -3.880037E-15   -9.485614E-17   -3.714587E-18   -1.259456E-19
        -3.687177E-21
  18    -3.601953E-22   -1.417819E-20   -4.856142E-19   -1.319901E-17   -3.948452E-16   -1.572598E-14   -2.928383E-13    7.812783E-12    2.354888E-09    3.730898E-07
         4.436155E-05    3.501479E-03    0.156745         3.13083         22.0948         53.5945         22.0948         3.13083        0.156745        3.501479E-03
         4.436155E-05    3.730897E-07    2.354889E-09    7.812860E-12   -2.928438E-13   -1.572653E-14   -3.948657E-16   -1.320001E-17   -4.856609E-19   -1.417982E-20
        -3.602444E-22
  19    -2.404954E-23   -1.037582E-21   -3.857421E-20   -1.149124E-18   -2.720653E-17   -1.107934E-15   -4.078234E-14   -5.854276E-13    3.726135E-11    7.287705E-09
         9.220410E-07    8.338638E-05    4.818607E-03    0.156745         2.39604         12.6217         2.39604        0.156745        4.818607E-03    8.338638E-05
         9.220409E-07    7.287709E-09    3.726155E-11   -5.854453E-13   -4.078401E-14   -1.108049E-15   -2.721166E-17   -1.149430E-18   -3.858674E-20   -1.037981E-21
        -2.406055E-23
  20    -1.124134E-24   -5.427554E-23   -2.295302E-21   -8.031705E-20   -2.240100E-18   -5.339163E-17   -2.275727E-15   -7.547061E-14   -7.868237E-13    8.501659E-11
         1.254679E-08    1.232035E-06    8.338638E-05    3.501479E-03    7.945391E-02    0.716820        7.945391E-02    3.501479E-03    8.338638E-05    1.232035E-06
         1.254681E-08    8.501631E-11   -7.868808E-13   -7.546848E-14   -2.276035E-15   -5.341567E-17   -2.241663E-18   -8.038559E-20   -2.297589E-21   -5.433861E-23
        -1.125668E-24
  21    -3.461327E-26   -1.939126E-24   -9.565124E-23   -3.973039E-21   -1.345990E-19   -3.646653E-18   -8.685799E-17   -3.587499E-15   -1.062148E-13   -8.345141E-13
         1.106094E-10    1.254679E-08    9.220410E-07    4.436155E-05    1.213943E-03    1.385460E-02    1.213943E-03    4.436155E-05    9.220409E-07    1.254681E-08
         1.106083E-10   -8.346126E-13   -1.062049E-13   -3.588255E-15   -8.694132E-17   -3.652268E-18   -1.348557E-19   -3.981857E-21   -9.589665E-23   -1.944915E-24
        -3.473513E-26
  22    -7.234882E-28   -4.860515E-26   -2.852489E-24   -1.415513E-22   -5.797110E-21   -1.911707E-19   -5.027574E-18   -1.162203E-16   -4.480429E-15   -1.185224E-13
        -8.345111E-13    8.501685E-11    7.287703E-09    3.730898E-07    1.123832E-05    1.439232E-04    1.123832E-05    3.730897E-07    7.287709E-09    8.501631E-11
        -8.346126E-13   -1.185053E-13   -4.481670E-15   -1.164018E-16   -5.040868E-18   -1.918149E-19   -5.820158E-21   -1.422062E-22   -2.867930E-24   -4.891729E-26
        -7.291150E-28
  23    -1.039419E-29   -8.706484E-28   -6.219411E-26   -3.725657E-24   -1.843460E-22   -7.386950E-21   -2.350683E-19   -5.902140E-18   -1.280699E-16   -4.480382E-15
        -1.062181E-13   -7.868161E-13    3.726141E-11    2.354887E-09    7.324163E-08    9.968501E-07    7.324162E-08    2.354889E-09    3.726155E-11   -7.868808E-13
        -1.062049E-13   -4.481670E-15   -1.283137E-16   -5.922942E-18   -2.361842E-19   -7.429773E-21   -1.856172E-22   -3.756187E-24   -6.280805E-26   -8.812299E-28
        -1.055518E-29
  24    -9.852345E-32   -1.104100E-29   -9.961885E-28   -7.343617E-26   -4.421729E-24   -2.151247E-22   -8.322801E-21   -2.517156E-19   -5.901246E-18   -1.162017E-16
        -3.587424E-15   -7.547274E-14   -5.854250E-13    7.812774E-12    3.813401E-10    5.269981E-09    3.813405E-10    7.812860E-12   -5.854453E-13   -7.546848E-14
        -3.588255E-15   -1.164018E-16   -5.922942E-18   -2.530846E-19   -8.381538E-21   -2.170043E-22   -4.468903E-24   -7.440100E-26   -1.012672E-27   -1.128012E-29
        -1.015291E-31
  25    -4.996950E-34   -9.313712E-32   -1.150093E-29   -1.083906E-27   -8.088869E-26   -4.809428E-24   -2.263339E-22   -8.320888E-21   -2.349839E-19   -5.025822E-18
        -8.684167E-17   -2.275681E-15   -4.078237E-14   -2.928376E-13   -6.196238E-14    2.128409E-11   -6.195994E-14   -2.928438E-13   -4.078401E-14   -2.276035E-15
        -8.694132E-17   -5.040868E-18   -2.361842E-19   -8.381538E-21   -2.285094E-22   -4.868322E-24   -8.214702E-26   -1.105729E-27   -1.181360E-29   -9.687727E-32
        -5.374223E-34
  26     7.700096E-37   -3.957252E-34   -8.899457E-32   -1.173087E-29   -1.128614E-27   -8.348104E-26   -4.807940E-24   -2.150151E-22   -7.382631E-21   -1.910710E-19
        -3.645442E-18   -5.338545E-17   -1.107911E-15   -1.572591E-14   -9.708837E-14   -2.910240E-13   -9.708960E-14   -1.572653E-14   -1.108049E-15   -5.341567E-17
        -3.652268E-18   -1.918149E-19   -7.429773E-21   -2.170043E-22   -4.868322E-24   -8.487279E-26   -1.153807E-27   -1.209636E-29   -9.329338E-32   -4.368574E-34
         4.512187E-37
  27     3.536628E-38    1.370444E-36   -3.320365E-34   -8.649435E-32   -1.179358E-29   -1.128121E-27   -8.083185E-26   -4.418034E-24   -1.841926E-22   -5.793131E-21
        -1.345397E-19   -2.239669E-18   -2.720523E-17   -3.948415E-16   -3.879970E-15   -1.818512E-14   -3.880037E-15   -3.948657E-16   -2.721166E-17   -2.241663E-18
        -1.348557E-19   -5.820158E-21   -1.856172E-22   -4.468903E-24   -8.214702E-26   -1.153807E-27   -1.218217E-29   -9.110832E-32   -3.751715E-34    1.055521E-36
         3.361446E-38
  28     2.888700E-40    3.492127E-38    1.645942E-36   -3.098644E-34   -8.642573E-32   -1.171817E-29   -1.082583E-27   -7.334561E-26   -3.721509E-24   -1.414288E-22
        -3.970896E-21   -8.029739E-20   -1.149041E-18   -1.319881E-17   -9.485425E-17   -6.311385E-16   -9.485614E-17   -1.320001E-17   -1.149430E-18   -8.038559E-20
        -3.981857E-21   -1.422062E-22   -3.756187E-24   -7.440100E-26   -1.105729E-27   -1.209636E-29   -9.110832E-32   -3.539306E-34    1.334488E-36    3.332241E-38
         2.833553E-40
  29     1.194574E-42    2.629035E-40    3.459120E-38    1.649234E-36   -3.309268E-34   -8.879689E-32   -1.147835E-29   -9.944468E-28   -6.210353E-26   -2.849429E-24
        -9.558903E-23   -2.294624E-21   -3.857067E-20   -4.856047E-19   -3.714492E-18   -1.765382E-17   -3.714587E-18   -4.856609E-19   -3.858674E-20   -2.297589E-21
        -9.589665E-23   -2.867930E-24   -6.280805E-26   -1.012672E-27   -1.181360E-29   -9.329338E-32   -3.751715E-34    1.334488E-36    3.304531E-38    2.582238E-40
         1.188732E-42
  30     2.255725E-45    1.058520E-42    2.629324E-40    3.494860E-38    1.380740E-36   -3.935266E-34   -9.283711E-32   -1.101372E-29   -8.689948E-28   -4.854058E-26
        -1.937609E-24   -5.425628E-23   -1.037465E-21   -1.417785E-20   -1.259419E-19   -7.930550E-19   -1.259456E-19   -1.417982E-20   -1.037981E-21   -5.433861E-23
        -1.944915E-24   -4.891729E-26   -8.812299E-28   -1.128012E-29   -9.687727E-32   -4.368574E-34    1.055521E-36    3.332241E-38    2.582238E-40    1.054280E-42
         2.266675E-45
  31      0.00000        2.255714E-45    1.194624E-42    2.889786E-40    3.542905E-38    7.882535E-37   -4.965001E-34   -9.816479E-32   -1.036807E-29   -7.222871E-28
        -3.458046E-26   -1.123652E-24   -2.404620E-23   -3.601845E-22   -3.687056E-21   -2.872099E-20   -3.687177E-21   -3.602444E-22   -2.406055E-23   -1.125668E-24
        -3.473513E-26   -7.291150E-28   -1.055518E-29   -1.015291E-31   -5.374223E-34    4.512187E-37    3.361446E-38    2.833553E-40    1.188732E-42    2.266675E-45
          0.00000    

 CONCENTRATION WILL BE SAVED ON UNIT 1030 AT END OF TIME STEP    6, STRESS PERIOD    2


  MASS BUDGET FOR ENTIRE MODEL AT END OF TIME STEP    6, STRESS PERIOD   2
  ---------------------------------------------------------------------------------------------------

     CUMULATIVE MASS      M       RATES FOR THIS TIME STEP      M/T          PACKAGE NAME    
     ------------------                 ------------------------                     ----------------

           IN:                                      IN:
           ---                                      ---
     STORAGE-AQUEOUS =  1280620794.3265       STORAGE-AQUEOUS =     8310029.7064     MST                              
                 WEL =  7884000000.0000                   WEL =           0.0000     SSM_WEL-1                        
                 CHD =           0.0000                   CHD =           0.0000     SSM_CHD-1                        

            TOTAL IN =  9164620794.3265              TOTAL IN =     8310029.7064

          OUT:                                     OUT:
          ----                                     ----
     STORAGE-AQUEOUS =  7886227773.3222       STORAGE-AQUEOUS =       11839.4246     MST                              
                 WEL =  1278393021.0043                   WEL =     8298190.2818     SSM_WEL-1                        
                 CHD =       7.5562E-18                   CHD =           0.0000     SSM_CHD-1                        

           TOTAL OUT =  9164620794.3265             TOTAL OUT =     8310029.7064

            IN - OUT =      -1.3351E-05              IN - OUT =       1.2852E-07

 PERCENT DISCREPANCY =          -0.00     PERCENT DISCREPANCY =           0.00




         TIME SUMMARY AT END OF TIME STEP    6 IN STRESS PERIOD    2
                    SECONDS     MINUTES      HOURS       DAYS        YEARS
                    -----------------------------------------------------------
   TIME STEP LENGTH 2.16991E+06  36165.      602.75      25.115     6.87602E-02
 STRESS PERIOD TIME 1.30194E+07 2.16991E+05  3616.5      150.69     0.41256    
         TOTAL TIME 9.18594E+07 1.53099E+06  25517.      1063.2      2.9109    


end timestep


start timestep kper="2" kstp="7" mode="normal"

 UBDSV1 SAVING  STORAGE-AQUEOUS ON UNIT   1029 AT TIME STEP      7, STRESS PERIOD      2
 UBDSV1 SAVING     FLOW-JA-FACE ON UNIT   1029 AT TIME STEP      7, STRESS PERIOD      2
 UBDSV06 SAVING  SOURCE-SINK MIX IN MODEL GWT_P06-MF6      PACKAGE GWT_P06-MF6     CONNECTED TO MODEL GWT_P06-MF6      PACKAGE SSM              ON UNIT   1029 AT TIME STEP      7, STRESS PERIOD      2
1
  CONCENTRATION IN LAYER   1 AT END OF TIME STEP   7 IN STRESS PERIOD    2
  ---------------------------------------------------------------------------

                1               2               3               4               5               6               7               8               9              10
               11              12              13              14              15              16              17              18              19              20
               21              22              23              24              25              26              27              28              29              30
               31
 ................................................................................................................................................................................................................................................................................................................................................................................................................................................................................................................
   1      0.00000        2.417823E-45    1.252599E-42    2.941050E-40    3.374298E-38    1.540332E-37   -6.037034E-34   -1.095914E-31   -1.120103E-29   -7.647959E-28
        -3.609690E-26   -1.161033E-24   -2.469422E-23   -3.682385E-22   -3.753513E-21   -2.899439E-20   -3.753404E-21   -3.681887E-22   -2.468303E-23   -1.159468E-24
        -3.597208E-26   -7.589978E-28   -1.103395E-29   -1.064470E-31   -5.638742E-34    4.941688E-37    3.563780E-38    3.002151E-40    1.259746E-42    2.407682E-45
          0.00000    
   2     2.417823E-45    1.100556E-42    2.665640E-40    3.359670E-38    8.439586E-37   -4.917946E-34   -1.044010E-31   -1.196325E-29   -9.248854E-28   -5.090857E-26
        -2.009162E-24   -5.577737E-23   -1.060584E-21   -1.443521E-20   -1.277125E-19   -7.979361E-19   -1.277091E-19   -1.443356E-20   -1.060180E-21   -5.571329E-23
        -2.003255E-24   -5.058839E-26   -9.139672E-28   -1.171497E-29   -1.004917E-31   -4.485021E-34    1.178009E-36    3.531009E-38    2.716781E-40    1.105706E-42
         2.407676E-45
   3     1.252599E-42    2.665640E-40    3.334503E-38    1.163670E-36   -4.227329E-34   -1.003072E-31   -1.251019E-29   -1.062241E-27   -6.538114E-26   -2.965098E-24
        -9.851972E-23   -2.347026E-21   -3.925029E-20   -4.921499E-19   -3.756079E-18   -1.782372E-17   -3.755993E-18   -4.921029E-19   -3.923765E-20   -2.344711E-21
        -9.827025E-23   -2.949325E-24   -6.475070E-26   -1.045223E-27   -1.218563E-29   -9.582086E-32   -3.774610E-34    1.492741E-36    3.499510E-38    2.717110E-40
         1.259814E-42
   4     2.941050E-40    3.359670E-38    1.163670E-36   -3.988613E-34   -9.779082E-32   -1.279045E-29   -1.158730E-27   -7.741797E-26   -3.883849E-24   -1.461622E-22
        -4.069214E-21   -8.172207E-20   -1.164970E-18   -1.333557E-17   -9.647224E-17   -6.345322E-16   -9.647055E-17   -1.333457E-17   -1.164662E-18   -8.165299E-20
        -4.060287E-21   -1.454959E-22   -3.852634E-24   -7.642660E-26   -1.136199E-27   -1.241130E-29   -9.298095E-32   -3.526642E-34    1.496264E-36    3.534000E-38
         3.003405E-40
   5     3.374298E-38    8.439586E-37   -4.227329E-34   -9.779082E-32   -1.287319E-29   -1.208271E-27   -8.543469E-26   -4.619758E-24   -1.907950E-22   -5.949740E-21
        -1.371497E-19   -2.272757E-18   -2.778711E-17   -4.021155E-16   -3.902005E-15   -1.812428E-14   -3.901946E-15   -4.020949E-16   -2.778196E-17   -2.271189E-18
        -1.368910E-19   -5.926392E-21   -1.895008E-22   -4.571498E-24   -8.414140E-26   -1.182262E-27   -1.247017E-29   -9.290895E-32   -3.762856E-34    1.189078E-36
         3.570724E-38
   6     1.540332E-37   -4.917946E-34   -1.003072E-31   -1.279045E-29   -1.208271E-27   -8.825021E-26   -5.031614E-24   -2.230411E-22   -7.596274E-21   -1.951680E-19
        -3.707513E-18   -5.480102E-17   -1.128747E-15   -1.574776E-14   -9.616899E-14   -2.693671E-13   -9.616792E-14   -1.574722E-14   -1.128632E-15   -5.477706E-17
        -3.701881E-18   -1.945185E-19   -7.552869E-21   -2.211266E-22   -4.971345E-24   -8.681967E-26   -1.181751E-27   -1.239806E-29   -9.561319E-32   -4.461664E-34
         5.139116E-37
   7    -6.037034E-34   -1.044010E-31   -1.251019E-29   -1.158730E-27   -8.543469E-26   -5.031614E-24   -2.348555E-22   -8.569728E-21   -2.403830E-19   -5.121757E-18
        -8.938563E-17   -2.317274E-15   -4.068449E-14   -2.815420E-13    3.238628E-13    2.595055E-11    3.238607E-13   -2.815365E-13   -4.068284E-14   -2.316970E-15
        -8.930294E-17   -5.108423E-18   -2.392574E-19   -8.510173E-21   -2.326392E-22   -4.969819E-24   -8.408281E-26   -1.134827E-27   -1.216208E-29   -1.001761E-31
        -5.604695E-34
   8    -1.095914E-31   -1.196325E-29   -1.062241E-27   -7.741797E-26   -4.619758E-24   -2.230411E-22   -8.569728E-21   -2.576084E-19   -6.020616E-18   -1.197726E-16
        -3.650023E-15   -7.497717E-14   -5.320469E-13    1.045327E-11    4.559595E-10    6.205925E-09    4.559592E-10    1.045320E-11   -5.320296E-13   -7.497920E-14
        -3.649287E-15   -1.195928E-16   -5.999750E-18   -2.562274E-19   -8.508232E-21   -2.210149E-22   -4.567710E-24   -7.633331E-26   -1.043419E-27   -1.168651E-29
        -1.060694E-31
   9    -1.120103E-29   -9.248854E-28   -6.538114E-26   -3.883849E-24   -1.907950E-22   -7.596274E-21   -2.403830E-19   -6.020616E-18   -1.320569E-16   -4.555631E-15
        -1.051566E-13   -6.484094E-13    4.679739E-11    2.803005E-09    8.567441E-08    1.139747E-06    8.567442E-08    2.803003E-09    4.679719E-11   -6.483531E-13
        -1.051662E-13   -4.554428E-15   -1.318156E-16   -5.998853E-18   -2.391723E-19   -7.548488E-21   -1.893445E-22   -3.848387E-24   -6.465748E-26   -9.122562E-28
        -1.100675E-29
  10    -7.647959E-28   -5.090857E-26   -2.965098E-24   -1.461622E-22   -5.949740E-21   -1.951680E-19   -5.121757E-18   -1.197726E-16   -4.555631E-15   -1.171831E-13
        -6.153674E-13    1.049616E-10    8.631957E-09    4.323132E-07    1.268733E-05    1.580505E-04    1.268733E-05    4.323132E-07    8.631952E-09    1.049619E-10
        -6.152694E-13   -1.171998E-13   -4.554383E-15   -1.195744E-16   -5.106666E-18   -1.944180E-19   -5.922359E-21   -1.453712E-22   -2.946197E-24   -5.052207E-26
        -7.577578E-28
  11    -3.609690E-26   -2.009162E-24   -9.851972E-23   -4.069214E-21   -1.371497E-19   -3.707513E-18   -8.938563E-17   -3.650023E-15   -1.051566E-13   -6.153674E-13
         1.359820E-10    1.481533E-08    1.061054E-06    4.952106E-05    1.312370E-03    1.450212E-02    1.312370E-03    4.952106E-05    1.061054E-06    1.481531E-08
         1.359831E-10   -6.152663E-13   -1.051694E-13   -3.649217E-15   -8.928681E-17   -3.700668E-18   -1.368313E-19   -4.058117E-21   -9.820701E-23   -2.001706E-24
        -3.593846E-26
  12    -1.161033E-24   -5.577737E-23   -2.347026E-21   -8.172207E-20   -2.272757E-18   -5.480102E-17   -2.317274E-15   -7.497717E-14   -6.484094E-13    1.049616E-10
         1.481533E-08    1.414535E-06    9.250256E-05    3.740958E-03    8.174476E-02    0.713411        8.174476E-02    3.740958E-03    9.250256E-05    1.414535E-06
         1.481531E-08    1.049621E-10   -6.483454E-13   -7.498128E-14   -2.316926E-15   -5.477093E-17   -2.270757E-18   -8.163318E-20   -2.344025E-21   -5.569373E-23
        -1.158978E-24
  13    -2.469422E-23   -1.060584E-21   -3.925029E-20   -1.164970E-18   -2.778711E-17   -1.128747E-15   -4.068449E-14   -5.320469E-13    4.679739E-11    8.631957E-09
         1.061054E-06    9.250256E-05    5.128801E-03    0.159638         2.35507         12.1877         2.35507        0.159638        5.128801E-03    9.250256E-05
         1.061054E-06    8.631951E-09    4.679724E-11   -5.320270E-13   -4.068286E-14   -1.128610E-15   -2.778067E-17   -1.164579E-18   -3.923408E-20   -1.060061E-21
        -2.467964E-23
  14    -3.682385E-22   -1.443521E-20   -4.921499E-19   -1.333557E-17   -4.021155E-16   -1.574776E-14   -2.815420E-13    1.045327E-11    2.803005E-09    4.323132E-07
         4.952106E-05    3.740958E-03    0.159638         3.05978         21.2260         51.5684         21.2260         3.05978        0.159638        3.740958E-03
         4.952106E-05    4.323132E-07    2.803003E-09    1.045319E-11   -2.815358E-13   -1.574715E-14   -4.020912E-16   -1.333438E-17   -4.920933E-19   -1.443322E-20
        -3.681778E-22
  15    -3.753513E-21   -1.277125E-19   -3.756079E-18   -9.647224E-17   -3.902005E-15   -9.616899E-14    3.238628E-13    4.559595E-10    8.567441E-08    1.268733E-05
         1.312370E-03    8.174476E-02     2.35507         21.2260         60.5439         82.7465         60.5439         21.2260         2.35507        8.174476E-02
         1.312370E-03    1.268733E-05    8.567442E-08    4.559591E-10    3.238602E-13   -9.616777E-14   -3.901938E-15   -9.647034E-17   -3.755983E-18   -1.277087E-19
        -3.753391E-21
  16    -2.899439E-20   -7.979361E-19   -1.782372E-17   -6.345322E-16   -1.812428E-14   -2.693671E-13    2.595055E-11    6.205925E-09    1.139747E-06    1.580505E-04
         1.450212E-02    0.713411         12.1877         51.5684         82.7465         94.7643         82.7465         51.5684         12.1877        0.713411    
         1.450212E-02    1.580505E-04    1.139747E-06    6.205925E-09    2.595055E-11   -2.693671E-13   -1.812428E-14   -6.345323E-16   -1.782372E-17   -7.979362E-19
        -2.899439E-20
  17    -3.753404E-21   -1.277091E-19   -3.755993E-18   -9.647055E-17   -3.901946E-15   -9.616792E-14    3.238607E-13    4.559592E-10    8.567442E-08    1.268733E-05
         1.312370E-03    8.174476E-02     2.35507         21.2260         60.5439         82.7465         60.5439         21.2260         2.35507        8.174476E-02
         1.312370E-03    1.268733E-05    8.567441E-08    4.559595E-10    3.238629E-13   -9.616899E-14   -3.902005E-15   -9.647224E-17   -3.756079E-18   -1.277125E-19
        -3.753513E-21
  18    -3.681887E-22   -1.443356E-20   -4.921029E-19   -1.333457E-17   -4.020949E-16   -1.574722E-14   -2.815365E-13    1.045320E-11    2.803003E-09    4.323132E-07
         4.952106E-05    3.740958E-03    0.159638         3.05978         21.2260         51.5684         21.2260         3.05978        0.159638        3.740958E-03
         4.952106E-05    4.323132E-07    2.803005E-09    1.045327E-11   -2.815420E-13   -1.574776E-14   -4.021155E-16   -1.333557E-17   -4.921499E-19   -1.443521E-20
        -3.682385E-22
  19    -2.468303E-23   -1.060180E-21   -3.923765E-20   -1.164662E-18   -2.778196E-17   -1.128632E-15   -4.068284E-14   -5.320296E-13    4.679719E-11    8.631952E-09
         1.061054E-06    9.250256E-05    5.128801E-03    0.159638         2.35507         12.1877         2.35507        0.159638        5.128801E-03    9.250256E-05
         1.061054E-06    8.631957E-09    4.679739E-11   -5.320469E-13   -4.068449E-14   -1.128747E-15   -2.778711E-17   -1.164970E-18   -3.925029E-20   -1.060584E-21
        -2.469422E-23
  20    -1.159468E-24   -5.571329E-23   -2.344711E-21   -8.165299E-20   -2.271189E-18   -5.477706E-17   -2.316970E-15   -7.497920E-14   -6.483531E-13    1.049619E-10
         1.481531E-08    1.414535E-06    9.250256E-05    3.740958E-03    8.174476E-02    0.713411        8.174476E-02    3.740958E-03    9.250256E-05    1.414535E-06
         1.481533E-08    1.049616E-10   -6.484094E-13   -7.497717E-14   -2.317274E-15   -5.480102E-17   -2.272757E-18   -8.172207E-20   -2.347026E-21   -5.577737E-23
        -1.161033E-24
  21    -3.597208E-26   -2.003255E-24   -9.827025E-23   -4.060287E-21   -1.368910E-19   -3.701881E-18   -8.930294E-17   -3.649287E-15   -1.051662E-13   -6.152694E-13
         1.359831E-10    1.481531E-08    1.061054E-06    4.952106E-05    1.312370E-03    1.450212E-02    1.312370E-03    4.952106E-05    1.061054E-06    1.481533E-08
         1.359820E-10   -6.153674E-13   -1.051566E-13   -3.650023E-15   -8.938563E-17   -3.707513E-18   -1.371497E-19   -4.069214E-21   -9.851972E-23   -2.009162E-24
        -3.609690E-26
  22    -7.589978E-28   -5.058839E-26   -2.949325E-24   -1.454959E-22   -5.926392E-21   -1.945185E-19   -5.108423E-18   -1.195928E-16   -4.554428E-15   -1.171998E-13
        -6.152663E-13    1.049621E-10    8.631951E-09    4.323132E-07    1.268733E-05    1.580505E-04    1.268733E-05    4.323132E-07    8.631957E-09    1.049616E-10
        -6.153674E-13   -1.171832E-13   -4.555631E-15   -1.197726E-16   -5.121757E-18   -1.951680E-19   -5.949740E-21   -1.461622E-22   -2.965098E-24   -5.090857E-26
        -7.647959E-28
  23    -1.103395E-29   -9.139672E-28   -6.475070E-26   -3.852634E-24   -1.895008E-22   -7.552869E-21   -2.392574E-19   -5.999750E-18   -1.318156E-16   -4.554383E-15
        -1.051694E-13   -6.483454E-13    4.679724E-11    2.803003E-09    8.567442E-08    1.139747E-06    8.567441E-08    2.803005E-09    4.679739E-11   -6.484094E-13
        -1.051566E-13   -4.555631E-15   -1.320569E-16   -6.020616E-18   -2.403830E-19   -7.596274E-21   -1.907950E-22   -3.883849E-24   -6.538114E-26   -9.248854E-28
        -1.120103E-29
  24    -1.064470E-31   -1.171497E-29   -1.045223E-27   -7.642660E-26   -4.571498E-24   -2.211266E-22   -8.510173E-21   -2.562274E-19   -5.998853E-18   -1.195744E-16
        -3.649217E-15   -7.498128E-14   -5.320270E-13    1.045319E-11    4.559591E-10    6.205925E-09    4.559595E-10    1.045327E-11   -5.320469E-13   -7.497717E-14
        -3.650023E-15   -1.197726E-16   -6.020616E-18   -2.576084E-19   -8.569728E-21   -2.230411E-22   -4.619758E-24   -7.741797E-26   -1.062241E-27   -1.196325E-29
        -1.095914E-31
  25    -5.638742E-34   -1.004917E-31   -1.218563E-29   -1.136199E-27   -8.414140E-26   -4.971345E-24   -2.326392E-22   -8.508232E-21   -2.391723E-19   -5.106666E-18
        -8.928681E-17   -2.316926E-15   -4.068286E-14   -2.815358E-13    3.238602E-13    2.595055E-11    3.238629E-13   -2.815420E-13   -4.068449E-14   -2.317274E-15
        -8.938563E-17   -5.121757E-18   -2.403830E-19   -8.569728E-21   -2.348555E-22   -5.031614E-24   -8.543469E-26   -1.158730E-27   -1.251019E-29   -1.044010E-31
        -6.037034E-34
  26     4.941688E-37   -4.485021E-34   -9.582086E-32   -1.241130E-29   -1.182262E-27   -8.681967E-26   -4.969819E-24   -2.210149E-22   -7.548488E-21   -1.944180E-19
        -3.700668E-18   -5.477093E-17   -1.128610E-15   -1.574715E-14   -9.616777E-14   -2.693671E-13   -9.616899E-14   -1.574776E-14   -1.128747E-15   -5.480102E-17
        -3.707513E-18   -1.951680E-19   -7.596274E-21   -2.230411E-22   -5.031614E-24   -8.825021E-26   -1.208271E-27   -1.279045E-29   -1.003072E-31   -4.917945E-34
         1.540333E-37
  27     3.563780E-38    1.178009E-36   -3.774610E-34   -9.298095E-32   -1.247017E-29   -1.181751E-27   -8.408281E-26   -4.567710E-24   -1.893445E-22   -5.922359E-21
        -1.368313E-19   -2.270757E-18   -2.778067E-17   -4.020912E-16   -3.901938E-15   -1.812428E-14   -3.902005E-15   -4.021155E-16   -2.778711E-17   -2.272757E-18
        -1.371497E-19   -5.949740E-21   -1.907950E-22   -4.619758E-24   -8.543469E-26   -1.208271E-27   -1.287319E-29   -9.779082E-32   -4.227329E-34    8.439586E-37
         3.374298E-38
  28     3.002151E-40    3.531009E-38    1.492741E-36   -3.526642E-34   -9.290895E-32   -1.239806E-29   -1.134827E-27   -7.633331E-26   -3.848387E-24   -1.453712E-22
        -4.058117E-21   -8.163318E-20   -1.164579E-18   -1.333438E-17   -9.647034E-17   -6.345323E-16   -9.647224E-17   -1.333557E-17   -1.164970E-18   -8.172207E-20
        -4.069214E-21   -1.461622E-22   -3.883849E-24   -7.741797E-26   -1.158730E-27   -1.279045E-29   -9.779082E-32   -3.988612E-34    1.163670E-36    3.359671E-38
         2.941050E-40
  29     1.259746E-42    2.716781E-40    3.499510E-38    1.496264E-36   -3.762856E-34   -9.561319E-32   -1.216208E-29   -1.043419E-27   -6.465748E-26   -2.946197E-24
        -9.820701E-23   -2.344025E-21   -3.923408E-20   -4.920933E-19   -3.755983E-18   -1.782372E-17   -3.756079E-18   -4.921499E-19   -3.925029E-20   -2.347026E-21
        -9.851972E-23   -2.965098E-24   -6.538114E-26   -1.062241E-27   -1.251019E-29   -1.003072E-31   -4.227329E-34    1.163670E-36    3.334503E-38    2.665640E-40
         1.252599E-42
  30     2.407682E-45    1.105706E-42    2.717110E-40    3.534000E-38    1.189078E-36   -4.461664E-34   -1.001761E-31   -1.168651E-29   -9.122562E-28   -5.052207E-26
        -2.001706E-24   -5.569373E-23   -1.060061E-21   -1.443322E-20   -1.277087E-19   -7.979362E-19   -1.277125E-19   -1.443521E-20   -1.060584E-21   -5.577737E-23
        -2.009162E-24   -5.090857E-26   -9.248854E-28   -1.196325E-29   -1.044010E-31   -4.917945E-34    8.439586E-37    3.359671E-38    2.665640E-40    1.100556E-42
         2.417823E-45
  31      0.00000        2.407676E-45    1.259814E-42    3.003405E-40    3.570724E-38    5.139116E-37   -5.604695E-34   -1.060694E-31   -1.100675E-29   -7.577578E-28
        -3.593846E-26   -1.158978E-24   -2.467964E-23   -3.681778E-22   -3.753391E-21   -2.899439E-20   -3.753513E-21   -3.682385E-22   -2.469422E-23   -1.161033E-24
        -3.609690E-26   -7.647959E-28   -1.120103E-29   -1.095914E-31   -6.037034E-34    1.540333E-37    3.374298E-38    2.941050E-40    1.252599E-42    2.417823E-45
          0.00000    

 CONCENTRATION WILL BE SAVED ON UNIT 1030 AT END OF TIME STEP    7, STRESS PERIOD    2


  MASS BUDGET FOR ENTIRE MODEL AT END OF TIME STEP    7, STRESS PERIOD   2
  ---------------------------------------------------------------------------------------------------

     CUMULATIVE MASS      M       RATES FOR THIS TIME STEP      M/T          PACKAGE NAME    
     ------------------                 ------------------------                     ----------------

           IN:                                      IN:
           ---                                      ---
     STORAGE-AQUEOUS =  1486523827.7418       STORAGE-AQUEOUS =     8198513.4766     MST                              
                 WEL =  7884000000.0000                   WEL =           0.0000     SSM_WEL-1                        
                 CHD =           0.0000                   CHD =           0.0000     SSM_CHD-1                        

            TOTAL IN =  9370523827.7419              TOTAL IN =     8198513.4766

          OUT:                                     OUT:
          ----                                     ----
     STORAGE-AQUEOUS =  7886500990.1670       STORAGE-AQUEOUS =       10878.7712     MST                              
                 WEL =  1484022837.5748                   WEL =     8187634.7055     SSM_WEL-1                        
                 CHD =       7.5562E-18                   CHD =           0.0000     SSM_CHD-1                        

           TOTAL OUT =  9370523827.7419             TOTAL OUT =     8198513.4766

            IN - OUT =      -1.1444E-05              IN - OUT =       7.1712E-08

 PERCENT DISCREPANCY =          -0.00     PERCENT DISCREPANCY =           0.00




         TIME SUMMARY AT END OF TIME STEP    7 IN STRESS PERIOD    2
                    SECONDS     MINUTES      HOURS       DAYS        YEARS
                    -----------------------------------------------------------
   TIME STEP LENGTH 2.16991E+06  36165.      602.75      25.115     6.87602E-02
 STRESS PERIOD TIME 1.51894E+07 2.53156E+05  4219.3      175.80     0.48132    
         TOTAL TIME 9.40294E+07 1.56716E+06  26119.      1088.3      2.9796    


end timestep


start timestep kper="2" kstp="8" mode="normal"

 UBDSV1 SAVING  STORAGE-AQUEOUS ON UNIT   1029 AT TIME STEP      8, STRESS PERIOD      2
 UBDSV1 SAVING     FLOW-JA-FACE ON UNIT   1029 AT TIME STEP      8, STRESS PERIOD      2
 UBDSV06 SAVING  SOURCE-SINK MIX IN MODEL GWT_P06-MF6      PACKAGE GWT_P06-MF6     CONNECTED TO MODEL GWT_P06-MF6      PACKAGE SSM              ON UNIT   1029 AT TIME STEP      8, STRESS PERIOD      2
1
  CONCENTRATION IN LAYER   1 AT END OF TIME STEP   8 IN STRESS PERIOD    2
  ---------------------------------------------------------------------------

                1               2               3               4               5               6               7               8               9              10
               11              12              13              14              15              16              17              18              19              20
               21              22              23              24              25              26              27              28              29              30
               31
 ................................................................................................................................................................................................................................................................................................................................................................................................................................................................................................................
   1      0.00000        2.576299E-45    1.318630E-42    3.048666E-40    3.374634E-38   -1.774082E-37   -6.750055E-34   -1.181302E-31   -1.187776E-29   -8.018594E-28
        -3.750113E-26   -1.197291E-24   -2.534095E-23   -3.763651E-22   -3.820597E-21   -2.926886E-20   -3.820486E-21   -3.763147E-22   -2.532959E-23   -1.195696E-24
        -3.737330E-26   -7.958857E-28   -1.170441E-29   -1.148417E-31   -6.329807E-34    1.852027E-37    3.579312E-38    3.116170E-40    1.327208E-42    2.567124E-45
          0.00000    
   2     2.576299E-45    1.148272E-42    2.749458E-40    3.379391E-38    6.080219E-37   -5.507754E-34   -1.123613E-31   -1.267905E-29   -9.702660E-28   -5.296395E-26
        -2.075057E-24   -5.724516E-23   -1.083546E-21   -1.469356E-20   -1.294943E-19   -8.028852E-19   -1.294909E-19   -1.469190E-20   -1.083137E-21   -5.718006E-23
        -2.069029E-24   -5.263557E-26   -9.590025E-28   -1.242131E-29   -1.082766E-31   -5.052288E-34    9.621574E-37    3.562843E-38    2.805241E-40    1.154414E-42
         2.567124E-45
   3     1.318630E-42    2.749458E-40    3.358192E-38    9.732595E-37   -4.736942E-34   -1.077177E-31   -1.323958E-29   -1.113766E-27   -6.803818E-26   -3.064813E-24
        -1.011958E-22   -2.397212E-21   -3.992177E-20   -4.986981E-19   -3.798347E-18   -1.799351E-17   -3.798260E-18   -4.986507E-19   -3.990902E-20   -2.394868E-21
        -1.009422E-22   -3.048703E-24   -6.739089E-26   -1.096200E-27   -1.290277E-29   -1.030369E-31   -4.261948E-34    1.320797E-36    3.534198E-38    2.805613E-40
         1.327298E-42
   4     3.048666E-40    3.379391E-38    9.732595E-37   -4.469626E-34   -1.048442E-31   -1.351669E-29   -1.213803E-27   -8.053329E-26   -4.014888E-24   -1.501993E-22
        -4.157890E-21   -8.307556E-20   -1.180822E-18   -1.347481E-17   -9.808182E-17   -6.378363E-16   -9.808011E-17   -1.347381E-17   -1.180513E-18   -8.300594E-20
        -4.148852E-21   -1.495216E-22   -3.982977E-24   -7.951481E-26   -1.190544E-27   -1.312345E-29   -9.983125E-32   -3.985456E-34    1.324565E-36    3.566111E-38
         3.117609E-40
   5     3.374634E-38    6.080219E-37   -4.736942E-34   -1.048442E-31   -1.359599E-29   -1.264846E-27   -8.882894E-26   -4.774609E-24   -1.960802E-22   -6.081336E-21
        -1.394758E-19   -2.304793E-18   -2.837149E-17   -4.092805E-16   -3.922797E-15   -1.804764E-14   -3.922738E-15   -4.092598E-16   -2.836632E-17   -2.303220E-18
        -1.392150E-19   -6.057687E-21   -1.947628E-22   -4.725243E-24   -8.749993E-26   -1.237999E-27   -1.317809E-29   -9.975572E-32   -4.249507E-34    9.740469E-37
         3.586974E-38
   6    -1.774082E-37   -5.507754E-34   -1.077177E-31   -1.351669E-29   -1.264846E-27   -9.173685E-26   -5.199224E-24   -2.292040E-22   -7.765433E-21   -1.985724E-19
        -3.764621E-18   -5.620322E-17   -1.149026E-15   -1.575830E-14   -9.490632E-14   -2.438546E-13   -9.490526E-14   -1.575776E-14   -1.148912E-15   -5.617934E-17
        -3.758974E-18   -1.979176E-19   -7.721444E-21   -2.272542E-22   -5.137557E-24   -9.026664E-26   -1.237470E-27   -1.310964E-29   -1.028188E-31   -5.027490E-34
         2.065386E-37
   7    -6.750055E-34   -1.123613E-31   -1.323958E-29   -1.213803E-27   -8.882894E-26   -5.199224E-24   -2.413343E-22   -8.760964E-21   -2.446492E-19   -5.205472E-18
        -9.185347E-17   -2.357272E-15   -4.053200E-14   -2.675773E-13    7.765308E-13    3.139727E-11    7.765285E-13   -2.675720E-13   -4.053035E-14   -2.356974E-15
        -9.177143E-17   -5.192100E-18   -2.435141E-19   -8.700586E-21   -2.390768E-22   -5.135992E-24   -8.743955E-26   -1.189123E-27   -1.287821E-29   -1.079447E-31
        -6.293554E-34
   8    -1.181302E-31   -1.267905E-29   -1.113766E-27   -8.053329E-26   -4.774609E-24   -2.292040E-22   -8.760964E-21   -2.622060E-19   -6.121737E-18   -1.231695E-16
        -3.709350E-15   -7.433972E-14   -4.675124E-13    1.355725E-11    5.424724E-10    7.264911E-09    5.424721E-10    1.355717E-11   -4.674954E-13   -7.434166E-14
        -3.708633E-15   -1.229914E-16   -6.100809E-18   -2.608130E-19   -8.698617E-21   -2.271403E-22   -4.721361E-24   -7.941871E-26   -1.094332E-27   -1.239164E-29
        -1.144445E-31
   9    -1.187776E-29   -9.702660E-28   -6.803818E-26   -4.014888E-24   -1.960802E-22   -7.765433E-21   -2.446492E-19   -6.121737E-18   -1.358264E-16   -4.626229E-15
        -1.038838E-13   -4.822179E-13    5.797662E-11    3.317650E-09    9.955842E-08    1.294677E-06    9.955842E-08    3.317649E-09    5.797642E-11   -4.821623E-13
        -1.038931E-13   -4.625062E-15   -1.355876E-16   -6.099909E-18   -2.434282E-19   -7.717000E-21   -1.946035E-22   -3.978628E-24   -6.729498E-26   -9.572326E-28
        -1.167608E-29
  10    -8.018594E-28   -5.296395E-26   -3.064813E-24   -1.501993E-22   -6.081336E-21   -1.985724E-19   -5.205472E-18   -1.231695E-16   -4.626229E-15   -1.156193E-13
        -3.528481E-13    1.282800E-10    1.016471E-08    4.977046E-07    1.423312E-05    1.725848E-04    1.423312E-05    4.977046E-07    1.016471E-08    1.282802E-10
        -3.527505E-13   -1.156356E-13   -4.625020E-15   -1.229733E-16   -5.190338E-18   -1.978163E-19   -6.053600E-21   -1.493947E-22   -3.045504E-24   -5.256745E-26
        -7.946058E-28
  11    -3.750113E-26   -2.075057E-24   -1.011958E-22   -4.157890E-21   -1.394758E-19   -3.764621E-18   -9.185347E-17   -3.709350E-15   -1.038838E-13   -3.528481E-13
         1.656158E-10    1.739249E-08    1.213424E-06    5.495377E-05    1.411602E-03    1.512444E-02    1.411602E-03    5.495377E-05    1.213424E-06    1.739248E-08
         1.656169E-10   -3.527472E-13   -1.038963E-13   -3.708567E-15   -9.175548E-17   -3.757757E-18   -1.391549E-19   -4.146656E-21   -1.008779E-22   -2.067449E-24
        -3.733884E-26
  12    -1.197291E-24   -5.724516E-23   -2.397212E-21   -8.307556E-20   -2.304793E-18   -5.620322E-17   -2.357272E-15   -7.433972E-14   -4.822179E-13    1.282800E-10
         1.739249E-08    1.614058E-06    1.020347E-04    3.978565E-03    8.387107E-02    0.709389        8.387107E-02    3.978565E-03    1.020347E-04    1.614059E-06
         1.739248E-08    1.282804E-10   -4.821545E-13   -7.434369E-14   -2.356931E-15   -5.617326E-17   -2.302787E-18   -8.298599E-20   -2.394174E-21   -5.716020E-23
        -1.195197E-24
  13    -2.534095E-23   -1.083546E-21   -3.992177E-20   -1.180822E-18   -2.837149E-17   -1.149026E-15   -4.053200E-14   -4.675124E-13    5.797662E-11    1.016471E-08
         1.213424E-06    1.020347E-04    5.434517E-03    0.162199         2.31364         11.7699         2.31364        0.162199        5.434517E-03    1.020347E-04
         1.213424E-06    1.016471E-08    5.797647E-11   -4.674929E-13   -4.053037E-14   -1.148890E-15   -2.836503E-17   -1.180429E-18   -3.990542E-20   -1.083017E-21
        -2.532615E-23
  14    -3.763651E-22   -1.469356E-20   -4.986981E-19   -1.347481E-17   -4.092805E-16   -1.575830E-14   -2.675773E-13    1.355725E-11    3.317650E-09    4.977046E-07
         5.495377E-05    3.978565E-03    0.162199         2.98930         20.3955         49.6130         20.3955         2.98930        0.162199        3.978565E-03
         5.495377E-05    4.977046E-07    3.317649E-09    1.355716E-11   -2.675713E-13   -1.575768E-14   -4.092562E-16   -1.347361E-17   -4.986411E-19   -1.469155E-20
        -3.763036E-22
  15    -3.820597E-21   -1.294943E-19   -3.798347E-18   -9.808182E-17   -3.922797E-15   -9.490632E-14    7.765308E-13    5.424724E-10    9.955842E-08    1.423312E-05
         1.411602E-03    8.387107E-02     2.31364         20.3955         58.4437         80.4610         58.4437         20.3955         2.31364        8.387107E-02
         1.411602E-03    1.423312E-05    9.955842E-08    5.424721E-10    7.765280E-13   -9.490511E-14   -3.922730E-15   -9.807989E-17   -3.798250E-18   -1.294905E-19
        -3.820473E-21
  16    -2.926886E-20   -8.028852E-19   -1.799351E-17   -6.378363E-16   -1.804764E-14   -2.438546E-13    3.139727E-11    7.264911E-09    1.294677E-06    1.725848E-04
         1.512444E-02    0.709389         11.7699         49.6130         80.4610         93.3170         80.4610         49.6130         11.7699        0.709389    
         1.512444E-02    1.725848E-04    1.294677E-06    7.264911E-09    3.139727E-11   -2.438546E-13   -1.804764E-14   -6.378363E-16   -1.799351E-17   -8.028852E-19
        -2.926886E-20
  17    -3.820486E-21   -1.294909E-19   -3.798260E-18   -9.808011E-17   -3.922738E-15   -9.490526E-14    7.765285E-13    5.424721E-10    9.955842E-08    1.423312E-05
         1.411602E-03    8.387107E-02     2.31364         20.3955         58.4437         80.4610         58.4437         20.3955         2.31364        8.387107E-02
         1.411602E-03    1.423312E-05    9.955842E-08    5.424724E-10    7.765308E-13   -9.490632E-14   -3.922797E-15   -9.808182E-17   -3.798347E-18   -1.294943E-19
        -3.820597E-21
  18    -3.763147E-22   -1.469190E-20   -4.986507E-19   -1.347381E-17   -4.092598E-16   -1.575776E-14   -2.675720E-13    1.355717E-11    3.317649E-09    4.977046E-07
         5.495377E-05    3.978565E-03    0.162199         2.98930         20.3955         49.6130         20.3955         2.98930        0.162199        3.978565E-03
         5.495377E-05    4.977046E-07    3.317650E-09    1.355725E-11   -2.675773E-13   -1.575830E-14   -4.092805E-16   -1.347481E-17   -4.986981E-19   -1.469356E-20
        -3.763651E-22
  19    -2.532959E-23   -1.083137E-21   -3.990902E-20   -1.180513E-18   -2.836632E-17   -1.148912E-15   -4.053035E-14   -4.674954E-13    5.797642E-11    1.016471E-08
         1.213424E-06    1.020347E-04    5.434517E-03    0.162199         2.31364         11.7699         2.31364        0.162199        5.434517E-03    1.020347E-04
         1.213424E-06    1.016471E-08    5.797662E-11   -4.675124E-13   -4.053200E-14   -1.149026E-15   -2.837149E-17   -1.180822E-18   -3.992177E-20   -1.083546E-21
        -2.534095E-23
  20    -1.195696E-24   -5.718006E-23   -2.394868E-21   -8.300594E-20   -2.303220E-18   -5.617934E-17   -2.356974E-15   -7.434166E-14   -4.821623E-13    1.282802E-10
         1.739248E-08    1.614059E-06    1.020347E-04    3.978565E-03    8.387107E-02    0.709389        8.387107E-02    3.978565E-03    1.020347E-04    1.614058E-06
         1.739249E-08    1.282800E-10   -4.822179E-13   -7.433972E-14   -2.357272E-15   -5.620322E-17   -2.304793E-18   -8.307556E-20   -2.397212E-21   -5.724516E-23
        -1.197291E-24
  21    -3.737330E-26   -2.069029E-24   -1.009422E-22   -4.148852E-21   -1.392150E-19   -3.758974E-18   -9.177143E-17   -3.708633E-15   -1.038931E-13   -3.527505E-13
         1.656169E-10    1.739248E-08    1.213424E-06    5.495377E-05    1.411602E-03    1.512444E-02    1.411602E-03    5.495377E-05    1.213424E-06    1.739249E-08
         1.656158E-10   -3.528481E-13   -1.038838E-13   -3.709350E-15   -9.185347E-17   -3.764621E-18   -1.394758E-19   -4.157890E-21   -1.011958E-22   -2.075057E-24
        -3.750113E-26
  22    -7.958857E-28   -5.263557E-26   -3.048703E-24   -1.495216E-22   -6.057687E-21   -1.979176E-19   -5.192100E-18   -1.229914E-16   -4.625062E-15   -1.156356E-13
        -3.527472E-13    1.282804E-10    1.016471E-08    4.977046E-07    1.423312E-05    1.725848E-04    1.423312E-05    4.977046E-07    1.016471E-08    1.282800E-10
        -3.528481E-13   -1.156193E-13   -4.626229E-15   -1.231695E-16   -5.205472E-18   -1.985724E-19   -6.081336E-21   -1.501993E-22   -3.064813E-24   -5.296395E-26
        -8.018594E-28
  23    -1.170441E-29   -9.590025E-28   -6.739089E-26   -3.982977E-24   -1.947628E-22   -7.721444E-21   -2.435141E-19   -6.100809E-18   -1.355876E-16   -4.625020E-15
        -1.038963E-13   -4.821545E-13    5.797647E-11    3.317649E-09    9.955842E-08    1.294677E-06    9.955842E-08    3.317650E-09    5.797662E-11   -4.822179E-13
        -1.038838E-13   -4.626229E-15   -1.358264E-16   -6.121737E-18   -2.446492E-19   -7.765433E-21   -1.960802E-22   -4.014888E-24   -6.803818E-26   -9.702660E-28
        -1.187776E-29
  24    -1.148417E-31   -1.242131E-29   -1.096200E-27   -7.951481E-26   -4.725243E-24   -2.272542E-22   -8.700586E-21   -2.608130E-19   -6.099909E-18   -1.229733E-16
        -3.708567E-15   -7.434369E-14   -4.674929E-13    1.355716E-11    5.424721E-10    7.264911E-09    5.424724E-10    1.355725E-11   -4.675124E-13   -7.433972E-14
        -3.709350E-15   -1.231695E-16   -6.121737E-18   -2.622060E-19   -8.760964E-21   -2.292040E-22   -4.774609E-24   -8.053329E-26   -1.113766E-27   -1.267905E-29
        -1.181302E-31
  25    -6.329807E-34   -1.082766E-31   -1.290277E-29   -1.190544E-27   -8.749993E-26   -5.137557E-24   -2.390768E-22   -8.698617E-21   -2.434282E-19   -5.190338E-18
        -9.175548E-17   -2.356931E-15   -4.053037E-14   -2.675713E-13    7.765280E-13    3.139727E-11    7.765308E-13   -2.675773E-13   -4.053200E-14   -2.357272E-15
        -9.185347E-17   -5.205472E-18   -2.446492E-19   -8.760964E-21   -2.413343E-22   -5.199224E-24   -8.882894E-26   -1.213803E-27   -1.323958E-29   -1.123613E-31
        -6.750055E-34
  26     1.852027E-37   -5.052288E-34   -1.030369E-31   -1.312345E-29   -1.237999E-27   -9.026664E-26   -5.135992E-24   -2.271403E-22   -7.717000E-21   -1.978163E-19
        -3.757757E-18   -5.617326E-17   -1.148890E-15   -1.575768E-14   -9.490511E-14   -2.438546E-13   -9.490632E-14   -1.575830E-14   -1.149026E-15   -5.620322E-17
        -3.764621E-18   -1.985724E-19   -7.765433E-21   -2.292040E-22   -5.199224E-24   -9.173685E-26   -1.264846E-27   -1.351669E-29   -1.077177E-31   -5.507754E-34
        -1.774081E-37
  27     3.579312E-38    9.621574E-37   -4.261948E-34   -9.983125E-32   -1.317809E-29   -1.237470E-27   -8.743955E-26   -4.721361E-24   -1.946035E-22   -6.053600E-21
        -1.391549E-19   -2.302787E-18   -2.836503E-17   -4.092562E-16   -3.922730E-15   -1.804764E-14   -3.922797E-15   -4.092805E-16   -2.837149E-17   -2.304793E-18
        -1.394758E-19   -6.081336E-21   -1.960802E-22   -4.774609E-24   -8.882894E-26   -1.264846E-27   -1.359599E-29   -1.048442E-31   -4.736942E-34    6.080219E-37
         3.374634E-38
  28     3.116170E-40    3.562843E-38    1.320797E-36   -3.985456E-34   -9.975572E-32   -1.310964E-29   -1.189123E-27   -7.941871E-26   -3.978628E-24   -1.493947E-22
        -4.146656E-21   -8.298599E-20   -1.180429E-18   -1.347361E-17   -9.807989E-17   -6.378363E-16   -9.808182E-17   -1.347481E-17   -1.180822E-18   -8.307556E-20
        -4.157890E-21   -1.501993E-22   -4.014888E-24   -8.053329E-26   -1.213803E-27   -1.351669E-29   -1.048442E-31   -4.469626E-34    9.732596E-37    3.379391E-38
         3.048666E-40
  29     1.327208E-42    2.805241E-40    3.534198E-38    1.324565E-36   -4.249507E-34   -1.028188E-31   -1.287821E-29   -1.094332E-27   -6.729498E-26   -3.045504E-24
        -1.008779E-22   -2.394174E-21   -3.990542E-20   -4.986411E-19   -3.798250E-18   -1.799351E-17   -3.798347E-18   -4.986981E-19   -3.992177E-20   -2.397212E-21
        -1.011958E-22   -3.064813E-24   -6.803818E-26   -1.113766E-27   -1.323958E-29   -1.077177E-31   -4.736942E-34    9.732596E-37    3.358193E-38    2.749458E-40
         1.318630E-42
  30     2.567124E-45    1.154414E-42    2.805613E-40    3.566111E-38    9.740469E-37   -5.027490E-34   -1.079447E-31   -1.239164E-29   -9.572326E-28   -5.256745E-26
        -2.067449E-24   -5.716020E-23   -1.083017E-21   -1.469155E-20   -1.294905E-19   -8.028852E-19   -1.294943E-19   -1.469356E-20   -1.083546E-21   -5.724516E-23
        -2.075057E-24   -5.296395E-26   -9.702660E-28   -1.267905E-29   -1.123613E-31   -5.507754E-34    6.080219E-37    3.379391E-38    2.749458E-40    1.148272E-42
         2.576299E-45
  31      0.00000        2.567124E-45    1.327298E-42    3.117609E-40    3.586974E-38    2.065386E-37   -6.293554E-34   -1.144445E-31   -1.167608E-29   -7.946058E-28
        -3.733884E-26   -1.195197E-24   -2.532615E-23   -3.763036E-22   -3.820473E-21   -2.926886E-20   -3.820597E-21   -3.763651E-22   -2.534095E-23   -1.197291E-24
        -3.750113E-26   -8.018594E-28   -1.187776E-29   -1.181302E-31   -6.750055E-34   -1.774081E-37    3.374634E-38    3.048666E-40    1.318630E-42    2.576299E-45
          0.00000    

 CONCENTRATION WILL BE SAVED ON UNIT 1030 AT END OF TIME STEP    8, STRESS PERIOD    2


  MASS BUDGET FOR ENTIRE MODEL AT END OF TIME STEP    8, STRESS PERIOD   2
  ---------------------------------------------------------------------------------------------------

     CUMULATIVE MASS      M       RATES FOR THIS TIME STEP      M/T          PACKAGE NAME    
     ------------------                 ------------------------                     ----------------

           IN:                                      IN:
           ---                                      ---
     STORAGE-AQUEOUS =  1689263222.9493       STORAGE-AQUEOUS =     8072545.7818     MST                              
                 WEL =  7884000000.0000                   WEL =           0.0000     SSM_WEL-1                        
                 CHD =           0.0000                   CHD =           0.0000     SSM_CHD-1                        

            TOTAL IN =  9573263222.9493              TOTAL IN =     8072545.7818

          OUT:                                     OUT:
          ----                                     ----
     STORAGE-AQUEOUS =  7886751029.0929       STORAGE-AQUEOUS =        9955.8878     MST                              
                 WEL =  1686512193.8564                   WEL =     8062589.8940     SSM_WEL-1                        
                 CHD =       7.5562E-18                   CHD =           0.0000     SSM_CHD-1                        

           TOTAL OUT =  9573263222.9493             TOTAL OUT =     8072545.7818

            IN - OUT =      -9.5367E-06              IN - OUT =       5.6811E-08

 PERCENT DISCREPANCY =          -0.00     PERCENT DISCREPANCY =           0.00




         TIME SUMMARY AT END OF TIME STEP    8 IN STRESS PERIOD    2
                    SECONDS     MINUTES      HOURS       DAYS        YEARS
                    -----------------------------------------------------------
   TIME STEP LENGTH 2.16991E+06  36165.      602.75      25.115     6.87602E-02
 STRESS PERIOD TIME 1.73593E+07 2.89321E+05  4822.0      200.92     0.55008    
         TOTAL TIME 9.61993E+07 1.60332E+06  26722.      1113.4      3.0484    


end timestep


start timestep kper="2" kstp="9" mode="normal"

 UBDSV1 SAVING  STORAGE-AQUEOUS ON UNIT   1029 AT TIME STEP      9, STRESS PERIOD      2
 UBDSV1 SAVING     FLOW-JA-FACE ON UNIT   1029 AT TIME STEP      9, STRESS PERIOD      2
 UBDSV06 SAVING  SOURCE-SINK MIX IN MODEL GWT_P06-MF6      PACKAGE GWT_P06-MF6     CONNECTED TO MODEL GWT_P06-MF6      PACKAGE SSM              ON UNIT   1029 AT TIME STEP      9, STRESS PERIOD      2
1
  CONCENTRATION IN LAYER   1 AT END OF TIME STEP   9 IN STRESS PERIOD    2
  ---------------------------------------------------------------------------

                1               2               3               4               5               6               7               8               9              10
               11              12              13              14              15              16              17              18              19              20
               21              22              23              24              25              26              27              28              29              30
               31
 ................................................................................................................................................................................................................................................................................................................................................................................................................................................................................................................
   1      0.00000        2.742333E-45    1.386819E-42    3.156022E-40    3.361101E-38   -5.455870E-37   -7.516151E-34   -1.271675E-31   -1.258653E-29   -8.403477E-28
        -3.894885E-26   -1.234459E-24   -2.600095E-23   -3.846255E-22   -3.888431E-21   -2.954444E-20   -3.888319E-21   -3.845744E-22   -2.598940E-23   -1.232834E-24
        -3.881794E-26   -8.341942E-28   -1.240673E-29   -1.237297E-31   -7.072974E-34   -1.593211E-37    3.581918E-38    3.230405E-40    1.396966E-42    2.734296E-45
          0.00000    
   2     2.742333E-45    1.197428E-42    2.833489E-40    3.390578E-38    3.459977E-37   -6.140257E-34   -1.207784E-31   -1.342876E-29   -1.017425E-27   -5.508501E-26
        -2.142630E-24   -5.874238E-23   -1.106871E-21   -1.495490E-20   -1.312915E-19   -8.079016E-19   -1.312881E-19   -1.495322E-20   -1.106456E-21   -5.867624E-23
        -2.136481E-24   -5.474826E-26   -1.005808E-27   -1.316127E-29   -1.165117E-31   -5.661276E-34    7.212180E-37    3.586838E-38    2.894226E-40    1.204651E-42
         2.734305E-45
   3     1.386819E-42    2.833489E-40    3.374931E-38    7.619097E-37   -5.282410E-34   -1.155429E-31   -1.400304E-29   -1.167310E-27   -7.078127E-26   -3.167122E-24
        -1.039256E-22   -2.448155E-21   -4.060134E-20   -5.053075E-19   -3.841379E-18   -1.816315E-17   -3.841292E-18   -5.052599E-19   -4.058848E-20   -2.445783E-21
        -1.036678E-22   -3.150669E-24   -7.011678E-26   -1.149181E-27   -1.365359E-29   -1.106604E-31   -4.784207E-34    1.128798E-36    3.562544E-38    2.894646E-40
         1.397081E-42
   4     3.156022E-40    3.390578E-38    7.619097E-37   -4.984063E-34   -1.122851E-31   -1.427629E-29   -1.271011E-27   -8.374944E-26   -4.149370E-24   -1.543188E-22
        -4.247902E-21   -8.444666E-20   -1.196991E-18   -1.361761E-17   -9.968399E-17   -6.410402E-16   -9.968227E-17   -1.361660E-17   -1.196681E-18   -8.437649E-20
        -4.238754E-21   -1.536294E-22   -4.116751E-24   -8.270325E-26   -1.247005E-27   -1.386851E-29   -1.070617E-31   -4.476771E-34    1.132825E-36    3.590402E-38
         3.232046E-40
   5     3.361101E-38    3.459977E-37   -5.282410E-34   -1.122851E-31   -1.435176E-29   -1.323597E-27   -9.233248E-26   -4.933530E-24   -2.014745E-22   -6.214978E-21
        -1.418352E-19   -2.337778E-18   -2.896431E-17   -4.163528E-16   -3.942152E-15   -1.795268E-14   -3.942093E-15   -4.163319E-16   -2.895913E-17   -2.336201E-18
        -1.415725E-19   -6.191025E-21   -2.001335E-22   -4.883041E-24   -9.096696E-26   -1.295891E-27   -1.391851E-29   -1.069825E-31   -4.771043E-34    7.339762E-37
         3.590352E-38
   6    -5.455870E-37   -6.140257E-34   -1.155429E-31   -1.427629E-29   -1.323597E-27   -9.533544E-26   -5.371235E-24   -2.354946E-22   -7.937295E-21   -2.020302E-19
        -3.823598E-18   -5.762083E-17   -1.168843E-15   -1.575592E-14   -9.324529E-14   -2.138704E-13   -9.324424E-14   -1.575538E-14   -1.168728E-15   -5.759705E-17
        -3.817936E-18   -2.013702E-19   -7.892717E-21   -2.335092E-22   -5.308146E-24   -9.382469E-26   -1.295342E-27   -1.385413E-29   -1.104315E-31   -5.634966E-34
        -1.362931E-37
   7    -7.516151E-34   -1.207784E-31   -1.400304E-29   -1.271011E-27   -9.233248E-26   -5.371235E-24   -2.479476E-22   -8.955299E-21   -2.489859E-19   -5.292012E-18
        -9.434199E-17   -2.395909E-15   -4.031721E-14   -2.505047E-13    1.306097E-12    3.771788E-11    1.306094E-12   -2.504994E-13   -4.031558E-14   -2.395615E-15
        -9.426060E-17   -5.278604E-18   -2.478412E-19   -8.894094E-21   -2.456484E-22   -5.306542E-24   -9.090475E-26   -1.245534E-27   -1.362799E-29   -1.161628E-31
        -7.034405E-34
   8    -1.271675E-31   -1.342876E-29   -1.167310E-27   -8.374944E-26   -4.933530E-24   -2.354946E-22   -8.955299E-21   -2.668808E-19   -6.226297E-18   -1.265885E-16
        -3.766237E-15   -7.355468E-14   -3.900058E-13    1.718917E-11    6.421284E-10    8.455653E-09    6.421281E-10    1.718909E-11   -3.899893E-13   -7.355655E-14
        -3.765539E-15   -1.264122E-16   -6.205312E-18   -2.654759E-19   -8.892095E-21   -2.333930E-22   -4.879063E-24   -8.260430E-26   -1.147247E-27   -1.313034E-29
        -1.233120E-31
   9    -1.258653E-29   -1.017425E-27   -7.078127E-26   -4.149370E-24   -2.014745E-22   -7.937295E-21   -2.489859E-19   -6.226297E-18   -1.396179E-16   -4.693768E-15
        -1.026898E-13   -2.837772E-13    7.101318E-11    3.904967E-09    1.149703E-07    1.461762E-06    1.149703E-07    3.904966E-09    7.101298E-11   -2.837224E-13
        -1.026989E-13   -4.692637E-15   -1.393815E-16   -6.204410E-18   -2.477545E-19   -7.888210E-21   -1.999712E-22   -4.112299E-24   -7.001812E-26   -1.003977E-27
        -1.237724E-29
  10    -8.403477E-28   -5.508501E-26   -3.167122E-24   -1.543188E-22   -6.214978E-21   -2.020302E-19   -5.292012E-18   -1.265885E-16   -4.693768E-15   -1.143105E-13
        -4.021875E-14    1.553930E-10    1.190168E-08    5.694950E-07    1.587420E-05    1.874855E-04    1.587420E-05    5.694950E-07    1.190168E-08    1.553932E-10
        -4.012272E-14   -1.143263E-13   -4.692598E-15   -1.263943E-16   -5.276838E-18   -2.012680E-19   -6.186884E-21   -1.535003E-22   -3.147400E-24   -5.467831E-26
        -8.328735E-28
  11    -3.894885E-26   -2.142630E-24   -1.039256E-22   -4.247902E-21   -1.418352E-19   -3.823598E-18   -9.434199E-17   -3.766237E-15   -1.026898E-13   -4.021875E-14
         2.000350E-10    2.030254E-08    1.379511E-06    6.064849E-05    1.511360E-03    1.572155E-02    1.511360E-03    6.064849E-05    1.379511E-06    2.030253E-08
         2.000359E-10   -4.011935E-14   -1.027020E-13   -3.765477E-15   -9.424483E-17   -3.816717E-18   -1.415118E-19   -4.236530E-21   -1.036025E-22   -2.134868E-24
        -3.878264E-26
  12    -1.234459E-24   -5.874238E-23   -2.448155E-21   -8.444666E-20   -2.337778E-18   -5.762083E-17   -2.395909E-15   -7.355468E-14   -2.837772E-13    1.553930E-10
         2.030254E-08    1.831001E-06    1.119577E-04    4.213661E-03    8.583805E-02    0.704808        8.583805E-02    4.213661E-03    1.119577E-04    1.831001E-06
         2.030253E-08    1.553934E-10   -2.837144E-13   -7.355854E-14   -2.395575E-15   -5.759102E-17   -2.335767E-18   -8.435640E-20   -2.445081E-21   -5.865609E-23
        -1.232325E-24
  13    -2.600095E-23   -1.106871E-21   -4.060134E-20   -1.196991E-18   -2.896431E-17   -1.168843E-15   -4.031721E-14   -3.900058E-13    7.101318E-11    1.190168E-08
         1.379511E-06    1.119577E-04    5.734975E-03    0.164445         2.27188         11.3677         2.27188        0.164445        5.734975E-03    1.119577E-04
         1.379511E-06    1.190167E-08    7.101303E-11   -3.899868E-13   -4.031559E-14   -1.168707E-15   -2.895784E-17   -1.196597E-18   -4.058485E-20   -1.106335E-21
        -2.598591E-23
  14    -3.846255E-22   -1.495490E-20   -5.053075E-19   -1.361761E-17   -4.163528E-16   -1.575592E-14   -2.505047E-13    1.718917E-11    3.904967E-09    5.694950E-07
         6.064849E-05    4.213661E-03    0.164445         2.91950         19.6013         47.7271         19.6013         2.91950        0.164445        4.213661E-03
         6.064849E-05    5.694950E-07    3.904966E-09    1.718909E-11   -2.504988E-13   -1.575531E-14   -4.163283E-16   -1.361641E-17   -5.052502E-19   -1.495287E-20
        -3.845632E-22
  15    -3.888431E-21   -1.312915E-19   -3.841379E-18   -9.968399E-17   -3.942152E-15   -9.324529E-14    1.306097E-12    6.421284E-10    1.149703E-07    1.587420E-05
         1.511360E-03    8.583805E-02     2.27188         19.6013         56.4038         78.1505         56.4038         19.6013         2.27188        8.583805E-02
         1.511360E-03    1.587420E-05    1.149703E-07    6.421281E-10    1.306094E-12   -9.324409E-14   -3.942085E-15   -9.968205E-17   -3.841282E-18   -1.312877E-19
        -3.888306E-21
  16    -2.954444E-20   -8.079016E-19   -1.816315E-17   -6.410402E-16   -1.795268E-14   -2.138704E-13    3.771788E-11    8.455653E-09    1.461762E-06    1.874855E-04
         1.572155E-02    0.704808         11.3677         47.7271         78.1505         91.7160         78.1505         47.7271         11.3677        0.704808    
         1.572155E-02    1.874855E-04    1.461762E-06    8.455653E-09    3.771788E-11   -2.138704E-13   -1.795268E-14   -6.410402E-16   -1.816315E-17   -8.079017E-19
        -2.954444E-20
  17    -3.888319E-21   -1.312881E-19   -3.841292E-18   -9.968227E-17   -3.942093E-15   -9.324424E-14    1.306094E-12    6.421281E-10    1.149703E-07    1.587420E-05
         1.511360E-03    8.583805E-02     2.27188         19.6013         56.4038         78.1505         56.4038         19.6013         2.27188        8.583805E-02
         1.511360E-03    1.587420E-05    1.149703E-07    6.421284E-10    1.306097E-12   -9.324529E-14   -3.942152E-15   -9.968399E-17   -3.841379E-18   -1.312915E-19
        -3.888431E-21
  18    -3.845744E-22   -1.495322E-20   -5.052599E-19   -1.361660E-17   -4.163319E-16   -1.575538E-14   -2.504994E-13    1.718909E-11    3.904966E-09    5.694950E-07
         6.064849E-05    4.213661E-03    0.164445         2.91950         19.6013         47.7271         19.6013         2.91950        0.164445        4.213661E-03
         6.064849E-05    5.694950E-07    3.904967E-09    1.718917E-11   -2.505047E-13   -1.575592E-14   -4.163528E-16   -1.361761E-17   -5.053075E-19   -1.495490E-20
        -3.846255E-22
  19    -2.598940E-23   -1.106456E-21   -4.058848E-20   -1.196681E-18   -2.895913E-17   -1.168728E-15   -4.031558E-14   -3.899893E-13    7.101298E-11    1.190168E-08
         1.379511E-06    1.119577E-04    5.734975E-03    0.164445         2.27188         11.3677         2.27188        0.164445        5.734975E-03    1.119577E-04
         1.379511E-06    1.190168E-08    7.101318E-11   -3.900058E-13   -4.031721E-14   -1.168843E-15   -2.896431E-17   -1.196991E-18   -4.060134E-20   -1.106871E-21
        -2.600095E-23
  20    -1.232834E-24   -5.867624E-23   -2.445783E-21   -8.437649E-20   -2.336201E-18   -5.759705E-17   -2.395615E-15   -7.355655E-14   -2.837224E-13    1.553932E-10
         2.030253E-08    1.831001E-06    1.119577E-04    4.213661E-03    8.583805E-02    0.704808        8.583805E-02    4.213661E-03    1.119577E-04    1.831001E-06
         2.030254E-08    1.553930E-10   -2.837772E-13   -7.355468E-14   -2.395909E-15   -5.762083E-17   -2.337778E-18   -8.444666E-20   -2.448155E-21   -5.874238E-23
        -1.234459E-24
  21    -3.881794E-26   -2.136481E-24   -1.036678E-22   -4.238754E-21   -1.415725E-19   -3.817936E-18   -9.426060E-17   -3.765539E-15   -1.026989E-13   -4.012272E-14
         2.000359E-10    2.030253E-08    1.379511E-06    6.064849E-05    1.511360E-03    1.572155E-02    1.511360E-03    6.064849E-05    1.379511E-06    2.030254E-08
         2.000350E-10   -4.021876E-14   -1.026898E-13   -3.766237E-15   -9.434199E-17   -3.823598E-18   -1.418352E-19   -4.247902E-21   -1.039256E-22   -2.142630E-24
        -3.894885E-26
  22    -8.341942E-28   -5.474826E-26   -3.150669E-24   -1.536294E-22   -6.191025E-21   -2.013702E-19   -5.278604E-18   -1.264122E-16   -4.692637E-15   -1.143263E-13
        -4.011935E-14    1.553934E-10    1.190167E-08    5.694950E-07    1.587420E-05    1.874855E-04    1.587420E-05    5.694950E-07    1.190168E-08    1.553930E-10
        -4.021876E-14   -1.143105E-13   -4.693768E-15   -1.265885E-16   -5.292012E-18   -2.020302E-19   -6.214978E-21   -1.543188E-22   -3.167122E-24   -5.508501E-26
        -8.403477E-28
  23    -1.240673E-29   -1.005808E-27   -7.011678E-26   -4.116751E-24   -2.001335E-22   -7.892717E-21   -2.478412E-19   -6.205312E-18   -1.393815E-16   -4.692598E-15
        -1.027020E-13   -2.837144E-13    7.101303E-11    3.904966E-09    1.149703E-07    1.461762E-06    1.149703E-07    3.904967E-09    7.101318E-11   -2.837772E-13
        -1.026898E-13   -4.693768E-15   -1.396179E-16   -6.226297E-18   -2.489859E-19   -7.937295E-21   -2.014745E-22   -4.149370E-24   -7.078127E-26   -1.017425E-27
        -1.258653E-29
  24    -1.237297E-31   -1.316127E-29   -1.149181E-27   -8.270325E-26   -4.883041E-24   -2.335092E-22   -8.894094E-21   -2.654759E-19   -6.204410E-18   -1.263943E-16
        -3.765477E-15   -7.355854E-14   -3.899868E-13    1.718909E-11    6.421281E-10    8.455653E-09    6.421284E-10    1.718917E-11   -3.900058E-13   -7.355468E-14
        -3.766237E-15   -1.265885E-16   -6.226297E-18   -2.668808E-19   -8.955299E-21   -2.354946E-22   -4.933530E-24   -8.374944E-26   -1.167310E-27   -1.342876E-29
        -1.271675E-31
  25    -7.072974E-34   -1.165117E-31   -1.365359E-29   -1.247005E-27   -9.096696E-26   -5.308146E-24   -2.456484E-22   -8.892095E-21   -2.477545E-19   -5.276838E-18
        -9.424483E-17   -2.395575E-15   -4.031559E-14   -2.504988E-13    1.306094E-12    3.771788E-11    1.306097E-12   -2.505047E-13   -4.031721E-14   -2.395909E-15
        -9.434199E-17   -5.292012E-18   -2.489859E-19   -8.955299E-21   -2.479476E-22   -5.371235E-24   -9.233248E-26   -1.271011E-27   -1.400304E-29   -1.207784E-31
        -7.516151E-34
  26    -1.593211E-37   -5.661276E-34   -1.106604E-31   -1.386851E-29   -1.295891E-27   -9.382469E-26   -5.306542E-24   -2.333930E-22   -7.888210E-21   -2.012680E-19
        -3.816717E-18   -5.759102E-17   -1.168707E-15   -1.575531E-14   -9.324409E-14   -2.138704E-13   -9.324529E-14   -1.575592E-14   -1.168843E-15   -5.762083E-17
        -3.823598E-18   -2.020302E-19   -7.937295E-21   -2.354946E-22   -5.371235E-24   -9.533544E-26   -1.323597E-27   -1.427629E-29   -1.155429E-31   -6.140257E-34
        -5.455870E-37
  27     3.581918E-38    7.212180E-37   -4.784207E-34   -1.070617E-31   -1.391851E-29   -1.295342E-27   -9.090475E-26   -4.879063E-24   -1.999712E-22   -6.186884E-21
        -1.415118E-19   -2.335767E-18   -2.895784E-17   -4.163283E-16   -3.942085E-15   -1.795268E-14   -3.942152E-15   -4.163528E-16   -2.896431E-17   -2.337778E-18
        -1.418352E-19   -6.214978E-21   -2.014745E-22   -4.933530E-24   -9.233248E-26   -1.323597E-27   -1.435176E-29   -1.122851E-31   -5.282410E-34    3.459977E-37
         3.361101E-38
  28     3.230405E-40    3.586838E-38    1.128798E-36   -4.476771E-34   -1.069825E-31   -1.385413E-29   -1.245534E-27   -8.260430E-26   -4.112299E-24   -1.535003E-22
        -4.236530E-21   -8.435640E-20   -1.196597E-18   -1.361641E-17   -9.968205E-17   -6.410402E-16   -9.968399E-17   -1.361761E-17   -1.196991E-18   -8.444666E-20
        -4.247902E-21   -1.543188E-22   -4.149370E-24   -8.374944E-26   -1.271011E-27   -1.427629E-29   -1.122851E-31   -4.984063E-34    7.619097E-37    3.390578E-38
         3.156022E-40
  29     1.396966E-42    2.894226E-40    3.562544E-38    1.132825E-36   -4.771043E-34   -1.104315E-31   -1.362799E-29   -1.147247E-27   -7.001812E-26   -3.147400E-24
        -1.036025E-22   -2.445081E-21   -4.058485E-20   -5.052502E-19   -3.841282E-18   -1.816315E-17   -3.841379E-18   -5.053075E-19   -4.060134E-20   -2.448155E-21
        -1.039256E-22   -3.167122E-24   -7.078127E-26   -1.167310E-27   -1.400304E-29   -1.155429E-31   -5.282410E-34    7.619097E-37    3.374931E-38    2.833489E-40
         1.386819E-42
  30     2.734296E-45    1.204651E-42    2.894646E-40    3.590402E-38    7.339762E-37   -5.634966E-34   -1.161628E-31   -1.313034E-29   -1.003977E-27   -5.467831E-26
        -2.134868E-24   -5.865609E-23   -1.106335E-21   -1.495287E-20   -1.312877E-19   -8.079017E-19   -1.312915E-19   -1.495490E-20   -1.106871E-21   -5.874238E-23
        -2.142630E-24   -5.508501E-26   -1.017425E-27   -1.342876E-29   -1.207784E-31   -6.140257E-34    3.459977E-37    3.390578E-38    2.833489E-40    1.197428E-42
         2.742333E-45
  31      0.00000        2.734305E-45    1.397081E-42    3.232046E-40    3.590352E-38   -1.362931E-37   -7.034405E-34   -1.233120E-31   -1.237724E-29   -8.328735E-28
        -3.878264E-26   -1.232325E-24   -2.598591E-23   -3.845632E-22   -3.888306E-21   -2.954444E-20   -3.888431E-21   -3.846255E-22   -2.600095E-23   -1.234459E-24
        -3.894885E-26   -8.403477E-28   -1.258653E-29   -1.271675E-31   -7.516151E-34   -5.455870E-37    3.361101E-38    3.156022E-40    1.386819E-42    2.742333E-45
          0.00000    

 CONCENTRATION WILL BE SAVED ON UNIT 1030 AT END OF TIME STEP    9, STRESS PERIOD    2


  MASS BUDGET FOR ENTIRE MODEL AT END OF TIME STEP    9, STRESS PERIOD   2
  ---------------------------------------------------------------------------------------------------

     CUMULATIVE MASS      M       RATES FOR THIS TIME STEP      M/T          PACKAGE NAME    
     ------------------                 ------------------------                     ----------------

           IN:                                      IN:
           ---                                      ---
     STORAGE-AQUEOUS =  1888506356.9340       STORAGE-AQUEOUS =     7933333.9194     MST                              
                 WEL =  7884000000.0000                   WEL =           0.0000     SSM_WEL-1                        
                 CHD =           0.0000                   CHD =           0.0000     SSM_CHD-1                        

            TOTAL IN =  9772506356.9340              TOTAL IN =     7933333.9194

          OUT:                                     OUT:
          ----                                     ----
     STORAGE-AQUEOUS =  7886978825.6938       STORAGE-AQUEOUS =        9070.2574     MST                              
                 WEL =  1885527531.2403                   WEL =     7924263.6620     SSM_WEL-1                        
                 CHD =       7.5562E-18                   CHD =           0.0000     SSM_CHD-1                        

           TOTAL OUT =  9772506356.9340             TOTAL OUT =     7933333.9194

            IN - OUT =      -9.5367E-06              IN - OUT =       4.1910E-08

 PERCENT DISCREPANCY =          -0.00     PERCENT DISCREPANCY =           0.00




         TIME SUMMARY AT END OF TIME STEP    9 IN STRESS PERIOD    2
                    SECONDS     MINUTES      HOURS       DAYS        YEARS
                    -----------------------------------------------------------
   TIME STEP LENGTH 2.16991E+06  36165.      602.75      25.115     6.87602E-02
 STRESS PERIOD TIME 1.95292E+07 3.25486E+05  5424.8      226.03     0.61884    
         TOTAL TIME 9.83692E+07 1.63949E+06  27325.      1138.5      3.1171    


end timestep


start timestep kper="2" kstp="10" mode="normal"

 UBDSV1 SAVING  STORAGE-AQUEOUS ON UNIT   1029 AT TIME STEP     10, STRESS PERIOD      2
 UBDSV1 SAVING     FLOW-JA-FACE ON UNIT   1029 AT TIME STEP     10, STRESS PERIOD      2
 UBDSV06 SAVING  SOURCE-SINK MIX IN MODEL GWT_P06-MF6      PACKAGE GWT_P06-MF6     CONNECTED TO MODEL GWT_P06-MF6      PACKAGE SSM              ON UNIT   1029 AT TIME STEP     10, STRESS PERIOD      2
1
  CONCENTRATION IN LAYER   1 AT END OF TIME STEP  10 IN STRESS PERIOD    2
  ---------------------------------------------------------------------------

                1               2               3               4               5               6               7               8               9              10
               11              12              13              14              15              16              17              18              19              20
               21              22              23              24              25              26              27              28              29              30
               31
 ................................................................................................................................................................................................................................................................................................................................................................................................................................................................................................................
   1      0.00000        2.916156E-45    1.457156E-42    3.262700E-40    3.332254E-38   -9.531216E-37   -8.338316E-34   -1.367264E-31   -1.332857E-29   -8.803040E-28
        -4.044110E-26   -1.272555E-24   -2.667439E-23   -3.930210E-22   -3.957021E-21   -2.982116E-20   -3.956908E-21   -3.929692E-22   -2.666266E-23   -1.270898E-24
        -4.030705E-26   -8.739665E-28   -1.314212E-29   -1.331339E-31   -7.871204E-34   -5.419704E-37    3.570199E-38    3.344465E-40    1.469019E-42    2.909445E-45
          0.00000    
   2     2.916156E-45    1.248024E-42    2.917505E-40    3.392353E-38    5.607997E-38   -6.817815E-34   -1.296730E-31   -1.421366E-29   -1.066419E-27   -5.727334E-26
        -2.211912E-24   -6.026943E-23   -1.130562E-21   -1.521925E-20   -1.331046E-19   -8.129848E-19   -1.331011E-19   -1.521755E-20   -1.130142E-21   -6.020225E-23
        -2.205639E-24   -5.692806E-26   -1.054438E-27   -1.393612E-29   -1.252177E-31   -6.314310E-34    4.534261E-37    3.602148E-38    2.983528E-40    1.256420E-42
         2.909463E-45
   3     1.457156E-42    2.917505E-40    3.384005E-38    5.282014E-37   -5.865675E-34   -1.238014E-31   -1.480185E-29   -1.222935E-27   -7.361255E-26   -3.272073E-24
        -1.067097E-22   -2.499865E-21   -4.128916E-20   -5.119803E-19   -3.885164E-18   -1.833256E-17   -3.885077E-18   -5.119323E-19   -4.127619E-20   -2.497464E-21
        -1.064479E-22   -3.255272E-24   -7.293050E-26   -1.204229E-27   -1.443936E-29   -1.187100E-31   -5.343292E-34    9.153614E-37    3.583864E-38    2.983999E-40
         1.469162E-42
   4     3.262700E-40    3.392353E-38    5.282014E-37   -5.533717E-34   -1.201309E-31   -1.507050E-29   -1.330422E-27   -8.706892E-26   -4.287358E-24   -1.585216E-22
        -4.339270E-21   -8.583596E-20   -1.213482E-18   -1.376385E-17   -1.012777E-16   -6.441319E-16   -1.012760E-16   -1.376284E-17   -1.213171E-18   -8.576525E-20
        -4.330010E-21   -1.578206E-22   -4.254020E-24   -8.599444E-26   -1.305650E-27   -1.464774E-29   -1.146895E-31   -5.002347E-34    9.196617E-37    3.606029E-38
         3.346328E-40
   5     3.332254E-38    5.607997E-38   -5.865675E-34   -1.201309E-31   -1.514174E-29   -1.384592E-27   -9.594802E-26   -5.096602E-24   -2.069792E-22   -6.350696E-21
        -1.442294E-19   -2.371717E-18   -2.956508E-17   -4.233225E-16   -3.959769E-15   -1.783671E-14   -3.959710E-15   -4.233015E-16   -2.955988E-17   -2.370135E-18
        -1.439646E-19   -6.326438E-21   -2.056145E-22   -5.044970E-24   -9.454519E-26   -1.356003E-27   -1.469266E-29   -1.146065E-31   -5.329372E-34    4.671041E-37
         3.579464E-38
   6    -9.531216E-37   -6.817815E-34   -1.238014E-31   -1.507050E-29   -1.384592E-27   -9.904878E-26   -5.547732E-24   -2.419150E-22   -8.111903E-21   -2.055437E-19
        -3.884447E-18   -5.905246E-17   -1.188145E-15   -1.573809E-14   -9.112179E-14   -1.787297E-13   -9.112075E-14   -1.573755E-14   -1.188031E-15   -5.902876E-17
        -3.878769E-18   -2.048784E-19   -8.066734E-21   -2.398934E-22   -5.483197E-24   -9.749660E-26   -1.355435E-27   -1.463276E-29   -1.184698E-31   -6.286414E-34
        -5.171466E-37
   7    -8.338316E-34   -1.296730E-31   -1.480185E-29   -1.330422E-27   -9.594802E-26   -5.547732E-24   -2.546976E-22   -9.152786E-21   -2.533959E-19   -5.381373E-18
        -9.684842E-17   -2.433230E-15   -4.003107E-14   -2.298204E-13    1.923554E-12    4.501141E-11    1.923552E-12   -2.298153E-13   -4.002945E-14   -2.432940E-15
        -9.676768E-17   -5.367930E-18   -2.522416E-19   -9.090749E-21   -2.523560E-22   -5.481553E-24   -9.448111E-26   -1.304126E-27   -1.441268E-29   -1.248512E-31
        -7.830202E-34
   8    -1.367264E-31   -1.421366E-29   -1.222935E-27   -8.706892E-26   -5.096602E-24   -2.419150E-22   -9.152786E-21   -2.716359E-19   -6.334287E-18   -1.300254E-16
        -3.820645E-15   -7.286976E-14   -2.974643E-13    2.141862E-11    7.562251E-10    9.786771E-09    7.562248E-10    2.141854E-11   -2.974482E-13   -7.287154E-14
        -3.819965E-15   -1.298509E-16   -6.313247E-18   -2.702190E-19   -9.088722E-21   -2.397749E-22   -5.040894E-24   -8.589256E-26   -1.202226E-27   -1.390390E-29
        -1.326949E-31
   9    -1.332857E-29   -1.066419E-27   -7.361255E-26   -4.287358E-24   -2.069792E-22   -8.111903E-21   -2.533959E-19   -6.334287E-18   -1.434262E-16   -4.757755E-15
        -1.012747E-13   -4.788658E-14    8.613623E-11    4.571228E-09    1.319833E-07    1.641082E-06    1.319833E-07    4.571227E-09    8.613603E-11   -4.783312E-14
        -1.012836E-13   -4.756658E-15   -1.431923E-16   -6.312342E-18   -2.521542E-19   -8.062165E-21   -2.054492E-22   -4.249463E-24   -7.282903E-26   -1.052546E-27
        -1.311143E-29
  10    -8.803040E-28   -5.727334E-26   -3.272073E-24   -1.585216E-22   -6.350696E-21   -2.055437E-19   -5.381373E-18   -1.300254E-16   -4.757755E-15   -1.124379E-13
         3.262396E-13    1.867506E-10    1.385867E-08    6.478940E-07    1.760880E-05    2.027131E-04    1.760880E-05    6.478940E-07    1.385867E-08    1.867508E-10
         3.263340E-13   -1.124534E-13   -4.756621E-15   -1.298332E-16   -5.366160E-18   -2.047753E-19   -6.322243E-21   -1.576891E-22   -3.251931E-24   -5.685625E-26
        -8.726038E-28
  11    -4.044110E-26   -2.211912E-24   -1.067097E-22   -4.339270E-21   -1.442294E-19   -3.884447E-18   -9.684842E-17   -3.820645E-15   -1.012747E-13    3.262396E-13
         2.398000E-10    2.356970E-08    1.559621E-06    6.659330E-05    1.611377E-03    1.629351E-02    1.611377E-03    6.659330E-05    1.559621E-06    2.356968E-08
         2.398009E-10    3.263375E-13   -1.012866E-13   -3.819908E-15   -9.675210E-17   -3.877548E-18   -1.439035E-19   -4.327759E-21   -1.063815E-22   -2.203994E-24
        -4.027090E-26
  12    -1.272555E-24   -6.026943E-23   -2.499865E-21   -8.583596E-20   -2.371717E-18   -5.905246E-17   -2.433230E-15   -7.286976E-14   -4.788658E-14    1.867506E-10
         2.356970E-08    2.065682E-06    1.222459E-04    4.445666E-03    8.765093E-02    0.699714        8.765093E-02    4.445666E-03    1.222459E-04    2.065682E-06
         2.356968E-08    1.867510E-10   -4.782517E-14   -7.287351E-14   -2.432902E-15   -5.902279E-17   -2.369700E-18   -8.574501E-20   -2.496754E-21   -6.018179E-23
        -1.270380E-24
  13    -2.667439E-23   -1.130562E-21   -4.128916E-20   -1.213482E-18   -2.956508E-17   -1.188145E-15   -4.003107E-14   -2.974643E-13    8.613623E-11    1.385867E-08
         1.559621E-06    1.222459E-04    6.029475E-03    0.166392         2.22990         10.9804         2.22990        0.166392        6.029475E-03    1.222459E-04
         1.559621E-06    1.385867E-08    8.613607E-11   -2.974457E-13   -4.002946E-14   -1.188010E-15   -2.955859E-17   -1.213087E-18   -4.127254E-20   -1.130019E-21
        -2.665911E-23
  14    -3.930210E-22   -1.521925E-20   -5.119803E-19   -1.376385E-17   -4.233225E-16   -1.573809E-14   -2.298204E-13    2.141862E-11    4.571228E-09    6.478940E-07
         6.659330E-05    4.445666E-03    0.166392         2.85047         18.8417         45.9095         18.8417         2.85047        0.166392        4.445666E-03
         6.659330E-05    6.478940E-07    4.571227E-09    2.141853E-11   -2.298147E-13   -1.573748E-14   -4.232979E-16   -1.376265E-17   -5.119226E-19   -1.521719E-20
        -3.929579E-22
  15    -3.957021E-21   -1.331046E-19   -3.885164E-18   -1.012777E-16   -3.959769E-15   -9.112179E-14    1.923554E-12    7.562251E-10    1.319833E-07    1.760880E-05
         1.611377E-03    8.765093E-02     2.22990         18.8417         54.4244         75.8291         54.4244         18.8417         2.22990        8.765093E-02
         1.611377E-03    1.760880E-05    1.319833E-07    7.562248E-10    1.923551E-12   -9.112060E-14   -3.959702E-15   -1.012758E-16   -3.885067E-18   -1.331007E-19
        -3.956895E-21
  16    -2.982116E-20   -8.129848E-19   -1.833256E-17   -6.441319E-16   -1.783671E-14   -1.787297E-13    4.501141E-11    9.786771E-09    1.641082E-06    2.027131E-04
         1.629351E-02    0.699714         10.9804         45.9095         75.8291         89.9776         75.8291         45.9095         10.9804        0.699714    
         1.629351E-02    2.027131E-04    1.641082E-06    9.786771E-09    4.501141E-11   -1.787297E-13   -1.783671E-14   -6.441320E-16   -1.833256E-17   -8.129848E-19
        -2.982116E-20
  17    -3.956908E-21   -1.331011E-19   -3.885077E-18   -1.012760E-16   -3.959710E-15   -9.112075E-14    1.923552E-12    7.562248E-10    1.319833E-07    1.760880E-05
         1.611377E-03    8.765093E-02     2.22990         18.8417         54.4244         75.8291         54.4244         18.8417         2.22990        8.765093E-02
         1.611377E-03    1.760880E-05    1.319833E-07    7.562251E-10    1.923554E-12   -9.112179E-14   -3.959769E-15   -1.012777E-16   -3.885164E-18   -1.331046E-19
        -3.957021E-21
  18    -3.929692E-22   -1.521755E-20   -5.119323E-19   -1.376284E-17   -4.233015E-16   -1.573755E-14   -2.298153E-13    2.141854E-11    4.571227E-09    6.478940E-07
         6.659330E-05    4.445666E-03    0.166392         2.85047         18.8417         45.9095         18.8417         2.85047        0.166392        4.445666E-03
         6.659330E-05    6.478940E-07    4.571228E-09    2.141862E-11   -2.298204E-13   -1.573809E-14   -4.233225E-16   -1.376385E-17   -5.119803E-19   -1.521925E-20
        -3.930210E-22
  19    -2.666266E-23   -1.130142E-21   -4.127619E-20   -1.213171E-18   -2.955988E-17   -1.188031E-15   -4.002945E-14   -2.974482E-13    8.613603E-11    1.385867E-08
         1.559621E-06    1.222459E-04    6.029475E-03    0.166392         2.22990         10.9804         2.22990        0.166392        6.029475E-03    1.222459E-04
         1.559621E-06    1.385867E-08    8.613623E-11   -2.974643E-13   -4.003107E-14   -1.188145E-15   -2.956508E-17   -1.213482E-18   -4.128916E-20   -1.130562E-21
        -2.667439E-23
  20    -1.270898E-24   -6.020225E-23   -2.497464E-21   -8.576525E-20   -2.370135E-18   -5.902876E-17   -2.432940E-15   -7.287154E-14   -4.783312E-14    1.867508E-10
         2.356968E-08    2.065682E-06    1.222459E-04    4.445666E-03    8.765093E-02    0.699714        8.765093E-02    4.445666E-03    1.222459E-04    2.065682E-06
         2.356970E-08    1.867506E-10   -4.788658E-14   -7.286976E-14   -2.433230E-15   -5.905246E-17   -2.371717E-18   -8.583596E-20   -2.499865E-21   -6.026943E-23
        -1.272555E-24
  21    -4.030705E-26   -2.205639E-24   -1.064479E-22   -4.330010E-21   -1.439646E-19   -3.878769E-18   -9.676768E-17   -3.819965E-15   -1.012836E-13    3.263340E-13
         2.398009E-10    2.356968E-08    1.559621E-06    6.659330E-05    1.611377E-03    1.629351E-02    1.611377E-03    6.659330E-05    1.559621E-06    2.356970E-08
         2.398000E-10    3.262396E-13   -1.012747E-13   -3.820645E-15   -9.684842E-17   -3.884447E-18   -1.442294E-19   -4.339270E-21   -1.067097E-22   -2.211912E-24
        -4.044110E-26
  22    -8.739665E-28   -5.692806E-26   -3.255272E-24   -1.578206E-22   -6.326438E-21   -2.048784E-19   -5.367930E-18   -1.298509E-16   -4.756658E-15   -1.124534E-13
         3.263375E-13    1.867510E-10    1.385867E-08    6.478940E-07    1.760880E-05    2.027131E-04    1.760880E-05    6.478940E-07    1.385867E-08    1.867506E-10
         3.262396E-13   -1.124379E-13   -4.757755E-15   -1.300254E-16   -5.381373E-18   -2.055437E-19   -6.350696E-21   -1.585216E-22   -3.272073E-24   -5.727334E-26
        -8.803040E-28
  23    -1.314212E-29   -1.054438E-27   -7.293050E-26   -4.254020E-24   -2.056145E-22   -8.066734E-21   -2.522416E-19   -6.313247E-18   -1.431923E-16   -4.756621E-15
        -1.012866E-13   -4.782517E-14    8.613607E-11    4.571227E-09    1.319833E-07    1.641082E-06    1.319833E-07    4.571228E-09    8.613623E-11   -4.788658E-14
        -1.012747E-13   -4.757755E-15   -1.434262E-16   -6.334287E-18   -2.533959E-19   -8.111903E-21   -2.069792E-22   -4.287358E-24   -7.361255E-26   -1.066419E-27
        -1.332857E-29
  24    -1.331339E-31   -1.393612E-29   -1.204229E-27   -8.599444E-26   -5.044970E-24   -2.398934E-22   -9.090749E-21   -2.702190E-19   -6.312342E-18   -1.298332E-16
        -3.819908E-15   -7.287351E-14   -2.974457E-13    2.141853E-11    7.562248E-10    9.786771E-09    7.562251E-10    2.141862E-11   -2.974643E-13   -7.286976E-14
        -3.820645E-15   -1.300254E-16   -6.334287E-18   -2.716359E-19   -9.152786E-21   -2.419150E-22   -5.096602E-24   -8.706892E-26   -1.222935E-27   -1.421366E-29
        -1.367264E-31
  25    -7.871204E-34   -1.252177E-31   -1.443936E-29   -1.305650E-27   -9.454519E-26   -5.483197E-24   -2.523560E-22   -9.088722E-21   -2.521542E-19   -5.366160E-18
        -9.675210E-17   -2.432902E-15   -4.002946E-14   -2.298147E-13    1.923551E-12    4.501141E-11    1.923554E-12   -2.298204E-13   -4.003107E-14   -2.433230E-15
        -9.684842E-17   -5.381373E-18   -2.533959E-19   -9.152786E-21   -2.546976E-22   -5.547732E-24   -9.594802E-26   -1.330422E-27   -1.480185E-29   -1.296730E-31
        -8.338316E-34
  26    -5.419704E-37   -6.314310E-34   -1.187100E-31   -1.464774E-29   -1.356003E-27   -9.749660E-26   -5.481553E-24   -2.397749E-22   -8.062165E-21   -2.047753E-19
        -3.877548E-18   -5.902279E-17   -1.188010E-15   -1.573748E-14   -9.112060E-14   -1.787297E-13   -9.112179E-14   -1.573809E-14   -1.188145E-15   -5.905246E-17
        -3.884447E-18   -2.055437E-19   -8.111903E-21   -2.419150E-22   -5.547732E-24   -9.904878E-26   -1.384592E-27   -1.507050E-29   -1.238014E-31   -6.817815E-34
        -9.531216E-37
  27     3.570199E-38    4.534261E-37   -5.343292E-34   -1.146895E-31   -1.469266E-29   -1.355435E-27   -9.448111E-26   -5.040894E-24   -2.054492E-22   -6.322243E-21
        -1.439035E-19   -2.369700E-18   -2.955859E-17   -4.232979E-16   -3.959702E-15   -1.783671E-14   -3.959769E-15   -4.233225E-16   -2.956508E-17   -2.371717E-18
        -1.442294E-19   -6.350696E-21   -2.069792E-22   -5.096602E-24   -9.594802E-26   -1.384592E-27   -1.514174E-29   -1.201309E-31   -5.865675E-34    5.608005E-38
         3.332254E-38
  28     3.344465E-40    3.602148E-38    9.153614E-37   -5.002347E-34   -1.146065E-31   -1.463276E-29   -1.304126E-27   -8.589256E-26   -4.249463E-24   -1.576891E-22
        -4.327759E-21   -8.574501E-20   -1.213087E-18   -1.376265E-17   -1.012758E-16   -6.441320E-16   -1.012777E-16   -1.376385E-17   -1.213482E-18   -8.583596E-20
        -4.339270E-21   -1.585216E-22   -4.287358E-24   -8.706892E-26   -1.330422E-27   -1.507050E-29   -1.201309E-31   -5.533716E-34    5.282015E-37    3.392353E-38
         3.262700E-40
  29     1.469019E-42    2.983528E-40    3.583864E-38    9.196617E-37   -5.329372E-34   -1.184698E-31   -1.441268E-29   -1.202226E-27   -7.282903E-26   -3.251931E-24
        -1.063815E-22   -2.496754E-21   -4.127254E-20   -5.119226E-19   -3.885067E-18   -1.833256E-17   -3.885164E-18   -5.119803E-19   -4.128916E-20   -2.499865E-21
        -1.067097E-22   -3.272073E-24   -7.361255E-26   -1.222935E-27   -1.480185E-29   -1.238014E-31   -5.865675E-34    5.282015E-37    3.384005E-38    2.917505E-40
         1.457156E-42
  30     2.909445E-45    1.256420E-42    2.983999E-40    3.606029E-38    4.671041E-37   -6.286414E-34   -1.248512E-31   -1.390390E-29   -1.052546E-27   -5.685625E-26
        -2.203994E-24   -6.018179E-23   -1.130019E-21   -1.521719E-20   -1.331007E-19   -8.129848E-19   -1.331046E-19   -1.521925E-20   -1.130562E-21   -6.026943E-23
        -2.211912E-24   -5.727334E-26   -1.066419E-27   -1.421366E-29   -1.296730E-31   -6.817815E-34    5.608005E-38    3.392353E-38    2.917505E-40    1.248024E-42
         2.916156E-45
  31      0.00000        2.909463E-45    1.469162E-42    3.346328E-40    3.579464E-38   -5.171466E-37   -7.830202E-34   -1.326949E-31   -1.311143E-29   -8.726038E-28
        -4.027090E-26   -1.270380E-24   -2.665911E-23   -3.929579E-22   -3.956895E-21   -2.982116E-20   -3.957021E-21   -3.930210E-22   -2.667439E-23   -1.272555E-24
        -4.044110E-26   -8.803040E-28   -1.332857E-29   -1.367264E-31   -8.338316E-34   -9.531216E-37    3.332254E-38    3.262700E-40    1.457156E-42    2.916156E-45
          0.00000    

 CONCENTRATION WILL BE SAVED ON UNIT 1030 AT END OF TIME STEP   10, STRESS PERIOD    2


  MASS BUDGET FOR ENTIRE MODEL AT END OF TIME STEP   10, STRESS PERIOD   2
  ---------------------------------------------------------------------------------------------------

     CUMULATIVE MASS      M       RATES FOR THIS TIME STEP      M/T          PACKAGE NAME    
     ------------------                 ------------------------                     ----------------

           IN:                                      IN:
           ---                                      ---
     STORAGE-AQUEOUS =  2083955978.2686       STORAGE-AQUEOUS =     7782286.2924     MST                              
                 WEL =  7884000000.0000                   WEL =           0.0000     SSM_WEL-1                        
                 CHD =           0.0000                   CHD =           0.0000     SSM_CHD-1                        

            TOTAL IN =  9967955978.2686              TOTAL IN =     7782286.2924

          OUT:                                     OUT:
          ----                                     ----
     STORAGE-AQUEOUS =  7887185300.4048       STORAGE-AQUEOUS =        8221.2762     MST                              
                 WEL =  2080770677.8638                   WEL =     7774065.0162     SSM_WEL-1                        
                 CHD =       7.5562E-18                   CHD =           0.0000     SSM_CHD-1                        

           TOTAL OUT =  9967955978.2686             TOTAL OUT =     7782286.2924

            IN - OUT =      -7.6294E-06              IN - OUT =       8.6613E-08

 PERCENT DISCREPANCY =          -0.00     PERCENT DISCREPANCY =           0.00




         TIME SUMMARY AT END OF TIME STEP   10 IN STRESS PERIOD    2
                    SECONDS     MINUTES      HOURS       DAYS        YEARS
                    -----------------------------------------------------------
   TIME STEP LENGTH 2.16991E+06  36165.      602.75      25.115     6.87602E-02
 STRESS PERIOD TIME 2.16991E+07 3.61651E+05  6027.5      251.15     0.68760    
         TOTAL TIME 1.00539E+08 1.67565E+06  27928.      1163.6      3.1859    


end timestep


start timestep kper="2" kstp="11" mode="normal"

 UBDSV1 SAVING  STORAGE-AQUEOUS ON UNIT   1029 AT TIME STEP     11, STRESS PERIOD      2
 UBDSV1 SAVING     FLOW-JA-FACE ON UNIT   1029 AT TIME STEP     11, STRESS PERIOD      2
 UBDSV06 SAVING  SOURCE-SINK MIX IN MODEL GWT_P06-MF6      PACKAGE GWT_P06-MF6     CONNECTED TO MODEL GWT_P06-MF6      PACKAGE SSM              ON UNIT   1029 AT TIME STEP     11, STRESS PERIOD      2
1
  CONCENTRATION IN LAYER   1 AT END OF TIME STEP  11 IN STRESS PERIOD    2
  ---------------------------------------------------------------------------

                1               2               3               4               5               6               7               8               9              10
               11              12              13              14              15              16              17              18              19              20
               21              22              23              24              25              26              27              28              29              30
               31
 ................................................................................................................................................................................................................................................................................................................................................................................................................................................................................................................
   1      0.00000        3.097994E-45    1.529622E-42    3.368239E-40    3.286547E-38   -1.402774E-36   -9.219678E-34   -1.468307E-31   -1.410510E-29   -9.217726E-28
        -4.197894E-26   -1.311595E-24   -2.736147E-23   -4.015528E-22   -4.026371E-21   -3.009905E-20   -4.026257E-21   -4.015002E-22   -2.734955E-23   -1.309907E-24
        -4.184170E-26   -9.152466E-28   -1.391180E-29   -1.430777E-31   -8.727589E-34   -9.654545E-37    3.542660E-38    3.457919E-40    1.543358E-42    3.092815E-45
          0.00000    
   2     3.097994E-45    1.300052E-42    3.001260E-40    3.383778E-38   -2.636339E-37   -7.542893E-34   -1.390671E-31   -1.503509E-29   -1.117302E-27   -5.953059E-26
        -2.282934E-24   -6.182671E-23   -1.154623E-21   -1.548663E-20   -1.349337E-19   -8.181339E-19   -1.349302E-19   -1.548492E-20   -1.154198E-21   -6.175848E-23
        -2.276537E-24   -5.917660E-26   -1.104950E-27   -1.474719E-29   -1.344163E-31   -7.013820E-34    1.569224E-37    3.607868E-38    3.072917E-40    1.309721E-42
         3.092845E-45
   3     1.529622E-42    3.001260E-40    3.384657E-38    2.706410E-37   -6.488762E-34   -1.325128E-31   -1.563733E-29   -1.280706E-27   -7.653418E-26   -3.379715E-24
        -1.095491E-22   -2.552351E-21   -4.198540E-20   -5.187184E-19   -3.929691E-18   -1.850168E-17   -3.929604E-18   -5.186701E-19   -4.197231E-20   -2.549921E-21
        -1.092830E-22   -3.362562E-24   -7.583422E-26   -1.261408E-27   -1.526140E-29   -1.272049E-31   -5.941196E-34    6.790310E-37    3.597429E-38    3.073445E-40
         1.543533E-42
   4     3.368239E-40    3.383778E-38    2.706410E-37   -6.120458E-34   -1.283995E-31   -1.590063E-29   -1.392104E-27   -9.049429E-26   -4.428919E-24   -1.628091E-22
        -4.432011E-21   -8.724405E-20   -1.230299E-18   -1.391342E-17   -1.028617E-16   -6.470981E-16   -1.028600E-16   -1.391241E-17   -1.229986E-18   -8.717279E-20
        -4.422639E-21   -1.620961E-22   -4.394851E-24   -8.939092E-26   -1.366544E-27   -1.546240E-29   -1.227323E-31   -5.564021E-34    6.836203E-37    3.612089E-38
         3.460024E-40
   5     3.286547E-38   -2.636339E-37   -6.488762E-34   -1.283995E-31   -1.596721E-29   -1.447900E-27   -9.967833E-26   -5.263901E-24   -2.125961E-22   -6.488524E-21
        -1.466596E-19   -2.406614E-18   -3.017323E-17   -4.301779E-16   -3.975302E-15   -1.769728E-14   -3.975243E-15   -4.301568E-16   -3.016802E-17   -2.405027E-18
        -1.463928E-19   -6.463961E-21   -2.112074E-22   -5.211108E-24   -9.823740E-26   -1.418405E-27   -1.550180E-29   -1.226453E-31   -5.926483E-34    1.715737E-37
         3.552818E-38
   6    -1.402774E-36   -7.542893E-34   -1.325128E-31   -1.590063E-29   -1.447900E-27   -1.028797E-25   -5.728801E-24   -2.484669E-22   -8.289307E-21   -2.091150E-19
        -3.947165E-18   -6.049655E-17   -1.206879E-15   -1.570196E-14   -8.846357E-14   -1.376742E-13   -8.846254E-14   -1.570142E-14   -1.206765E-15   -6.047295E-17
        -3.941474E-18   -2.084444E-19   -8.243544E-21   -2.464087E-22   -5.662796E-24   -1.012852E-25   -1.417817E-27   -1.544680E-29   -1.269529E-31   -6.984259E-34
        -9.387260E-37
   7    -9.219678E-34   -1.390671E-31   -1.563733E-29   -1.392104E-27   -9.967833E-26   -5.728801E-24   -2.615861E-22   -9.353483E-21   -2.578820E-19   -5.473545E-18
        -9.936957E-17   -2.469025E-15   -3.967006E-14   -2.049583E-13    2.640859E-12    5.338213E-11    2.640856E-12   -2.049533E-13   -3.966845E-14   -2.468740E-15
        -9.928947E-17   -5.460069E-18   -2.567183E-19   -9.290609E-21   -2.592018E-22   -5.661111E-24   -9.817140E-26   -1.364966E-27   -1.523361E-29   -1.340314E-31
        -8.684032E-34
   8    -1.468307E-31   -1.503509E-29   -1.280706E-27   -9.049429E-26   -5.263901E-24   -2.484669E-22   -9.353483E-21   -2.764743E-19   -6.445687E-18   -1.334751E-16
        -3.872062E-15   -7.192202E-14   -1.875675E-13    2.632037E-11    8.861042E-10    1.126676E-08    8.861040E-10    2.632030E-11   -1.875518E-13   -7.192373E-14
        -3.871399E-15   -1.333023E-16   -6.424594E-18   -2.750456E-19   -9.288553E-21   -2.462880E-22   -5.206933E-24   -8.928605E-26   -1.259335E-27   -1.471363E-29
        -1.426166E-31
   9    -1.410510E-29   -1.117302E-27   -7.653418E-26   -4.428919E-24   -2.125961E-22   -8.289307E-21   -2.578820E-19   -6.445687E-18   -1.472456E-16   -4.817416E-15
        -9.932343E-14    2.279418E-13    1.035905E-10    5.322811E-09    1.506669E-07    1.832674E-06    1.506669E-07    5.322810E-09    1.035903E-10    2.279939E-13
        -9.933209E-14   -4.816352E-15   -1.470142E-16   -6.423687E-18   -2.566301E-19   -8.238911E-21   -2.110389E-22   -4.390187E-24   -7.572988E-26   -1.102994E-27
        -1.387988E-29
  10    -9.217726E-28   -5.953059E-26   -3.379715E-24   -1.628091E-22   -6.488524E-21   -2.091150E-19   -5.473545E-18   -1.334751E-16   -4.817416E-15   -1.099105E-13
         7.544418E-13    2.228294E-10    1.605154E-08    7.330896E-07    1.943483E-05    2.182292E-04    1.943483E-05    7.330896E-07    1.605153E-08    2.228296E-10
         7.545347E-13   -1.099257E-13   -4.816318E-15   -1.332849E-16   -5.458294E-18   -2.083406E-19   -6.459711E-21   -1.619624E-22   -3.359147E-24   -5.910289E-26
        -9.138410E-28
  11    -4.197894E-26   -2.282934E-24   -1.095491E-22   -4.432011E-21   -1.466596E-19   -3.947165E-18   -9.936957E-17   -3.872062E-15   -9.932343E-14    7.544418E-13
         2.854999E-10    2.721801E-08    1.754003E-06    7.277572E-05    1.711406E-03    1.684044E-02    1.711406E-03    7.277572E-05    1.754003E-06    2.721800E-08
         2.855008E-10    7.545381E-13   -9.933505E-14   -3.871346E-15   -9.927409E-17   -3.940250E-18   -1.463313E-19   -4.420361E-21   -1.092155E-22   -2.274858E-24
        -4.180468E-26
  12    -1.311595E-24   -6.182671E-23   -2.552351E-21   -8.724405E-20   -2.406614E-18   -6.049655E-17   -2.469025E-15   -7.192202E-14    2.279418E-13    2.228294E-10
         2.721801E-08    2.318351E-06    1.328726E-04    4.674053E-03    8.931498E-02    0.694154        8.931498E-02    4.674053E-03    1.328726E-04    2.318352E-06
         2.721800E-08    2.228298E-10    2.280019E-13   -7.192566E-14   -2.468703E-15   -6.046702E-17   -2.404592E-18   -8.715241E-20   -2.549203E-21   -6.173771E-23
        -1.309379E-24
  13    -2.736147E-23   -1.154623E-21   -4.198540E-20   -1.230299E-18   -3.017323E-17   -1.206879E-15   -3.967006E-14   -1.875675E-13    1.035905E-10    1.605154E-08
         1.754003E-06    1.328726E-04    6.317399E-03    0.168057         2.18779         10.6074         2.18779        0.168057        6.317399E-03    1.328726E-04
         1.754003E-06    1.605153E-08    1.035904E-10   -1.875493E-13   -3.966846E-14   -1.206745E-15   -3.016674E-17   -1.229901E-18   -4.196863E-20   -1.154074E-21
        -2.734596E-23
  14    -4.015528E-22   -1.548663E-20   -5.187184E-19   -1.391342E-17   -4.301779E-16   -1.570196E-14   -2.049583E-13    2.632037E-11    5.322811E-09    7.330896E-07
         7.277572E-05    4.674053E-03    0.168057         2.78230         18.1149         44.1584         18.1149         2.78230        0.168057        4.674053E-03
         7.277572E-05    7.330896E-07    5.322810E-09    2.632029E-11   -2.049527E-13   -1.570135E-14   -4.301532E-16   -1.391221E-17   -5.186604E-19   -1.548456E-20
        -4.014888E-22
  15    -4.026371E-21   -1.349337E-19   -3.929691E-18   -1.028617E-16   -3.975302E-15   -8.846357E-14    2.640859E-12    8.861042E-10    1.506669E-07    1.943483E-05
         1.711406E-03    8.931498E-02     2.18779         18.1149         52.5051         73.5095         52.5051         18.1149         2.18779        8.931498E-02
         1.711406E-03    1.943483E-05    1.506669E-07    8.861039E-10    2.640856E-12   -8.846240E-14   -3.975235E-15   -1.028597E-16   -3.929593E-18   -1.349298E-19
        -4.026244E-21
  16    -3.009905E-20   -8.181339E-19   -1.850168E-17   -6.470981E-16   -1.769728E-14   -1.376742E-13    5.338213E-11    1.126676E-08    1.832674E-06    2.182292E-04
         1.684044E-02    0.694154         10.6074         44.1584         73.5095         88.1194         73.5095         44.1584         10.6074        0.694154    
         1.684044E-02    2.182292E-04    1.832674E-06    1.126676E-08    5.338213E-11   -1.376742E-13   -1.769728E-14   -6.470981E-16   -1.850168E-17   -8.181340E-19
        -3.009905E-20
  17    -4.026257E-21   -1.349302E-19   -3.929604E-18   -1.028600E-16   -3.975243E-15   -8.846254E-14    2.640856E-12    8.861040E-10    1.506669E-07    1.943483E-05
         1.711406E-03    8.931498E-02     2.18779         18.1149         52.5051         73.5095         52.5051         18.1149         2.18779        8.931498E-02
         1.711406E-03    1.943483E-05    1.506669E-07    8.861042E-10    2.640859E-12   -8.846357E-14   -3.975302E-15   -1.028617E-16   -3.929691E-18   -1.349337E-19
        -4.026371E-21
  18    -4.015002E-22   -1.548492E-20   -5.186701E-19   -1.391241E-17   -4.301568E-16   -1.570142E-14   -2.049533E-13    2.632030E-11    5.322810E-09    7.330896E-07
         7.277572E-05    4.674053E-03    0.168057         2.78230         18.1149         44.1584         18.1149         2.78230        0.168057        4.674053E-03
         7.277572E-05    7.330896E-07    5.322811E-09    2.632037E-11   -2.049583E-13   -1.570196E-14   -4.301779E-16   -1.391342E-17   -5.187184E-19   -1.548663E-20
        -4.015527E-22
  19    -2.734955E-23   -1.154198E-21   -4.197231E-20   -1.229986E-18   -3.016802E-17   -1.206765E-15   -3.966845E-14   -1.875518E-13    1.035903E-10    1.605153E-08
         1.754003E-06    1.328726E-04    6.317399E-03    0.168057         2.18779         10.6074         2.18779        0.168057        6.317399E-03    1.328726E-04
         1.754003E-06    1.605154E-08    1.035905E-10   -1.875675E-13   -3.967006E-14   -1.206879E-15   -3.017323E-17   -1.230299E-18   -4.198540E-20   -1.154623E-21
        -2.736147E-23
  20    -1.309907E-24   -6.175848E-23   -2.549921E-21   -8.717279E-20   -2.405027E-18   -6.047295E-17   -2.468740E-15   -7.192373E-14    2.279939E-13    2.228296E-10
         2.721800E-08    2.318352E-06    1.328726E-04    4.674053E-03    8.931498E-02    0.694154        8.931498E-02    4.674053E-03    1.328726E-04    2.318351E-06
         2.721801E-08    2.228294E-10    2.279418E-13   -7.192202E-14   -2.469025E-15   -6.049655E-17   -2.406614E-18   -8.724405E-20   -2.552351E-21   -6.182671E-23
        -1.311595E-24
  21    -4.184170E-26   -2.276537E-24   -1.092830E-22   -4.422639E-21   -1.463928E-19   -3.941474E-18   -9.928947E-17   -3.871399E-15   -9.933209E-14    7.545347E-13
         2.855008E-10    2.721800E-08    1.754003E-06    7.277572E-05    1.711406E-03    1.684044E-02    1.711406E-03    7.277572E-05    1.754003E-06    2.721801E-08
         2.854999E-10    7.544418E-13   -9.932343E-14   -3.872062E-15   -9.936957E-17   -3.947165E-18   -1.466596E-19   -4.432011E-21   -1.095491E-22   -2.282934E-24
        -4.197894E-26
  22    -9.152466E-28   -5.917660E-26   -3.362562E-24   -1.620961E-22   -6.463961E-21   -2.084444E-19   -5.460069E-18   -1.333023E-16   -4.816352E-15   -1.099257E-13
         7.545381E-13    2.228298E-10    1.605153E-08    7.330896E-07    1.943483E-05    2.182292E-04    1.943483E-05    7.330896E-07    1.605154E-08    2.228294E-10
         7.544418E-13   -1.099105E-13   -4.817416E-15   -1.334751E-16   -5.473545E-18   -2.091150E-19   -6.488524E-21   -1.628091E-22   -3.379715E-24   -5.953059E-26
        -9.217726E-28
  23    -1.391180E-29   -1.104950E-27   -7.583422E-26   -4.394851E-24   -2.112074E-22   -8.243544E-21   -2.567183E-19   -6.424594E-18   -1.470142E-16   -4.816318E-15
        -9.933505E-14    2.280019E-13    1.035904E-10    5.322810E-09    1.506669E-07    1.832674E-06    1.506669E-07    5.322811E-09    1.035905E-10    2.279418E-13
        -9.932343E-14   -4.817416E-15   -1.472456E-16   -6.445687E-18   -2.578820E-19   -8.289307E-21   -2.125961E-22   -4.428919E-24   -7.653418E-26   -1.117302E-27
        -1.410510E-29
  24    -1.430777E-31   -1.474719E-29   -1.261408E-27   -8.939092E-26   -5.211108E-24   -2.464087E-22   -9.290609E-21   -2.750456E-19   -6.423687E-18   -1.332849E-16
        -3.871346E-15   -7.192566E-14   -1.875493E-13    2.632029E-11    8.861039E-10    1.126676E-08    8.861042E-10    2.632037E-11   -1.875675E-13   -7.192202E-14
        -3.872062E-15   -1.334751E-16   -6.445687E-18   -2.764743E-19   -9.353483E-21   -2.484669E-22   -5.263901E-24   -9.049429E-26   -1.280706E-27   -1.503508E-29
        -1.468307E-31
  25    -8.727589E-34   -1.344163E-31   -1.526140E-29   -1.366544E-27   -9.823740E-26   -5.662796E-24   -2.592018E-22   -9.288553E-21   -2.566301E-19   -5.458294E-18
        -9.927409E-17   -2.468703E-15   -3.966846E-14   -2.049527E-13    2.640856E-12    5.338213E-11    2.640859E-12   -2.049583E-13   -3.967006E-14   -2.469025E-15
        -9.936957E-17   -5.473545E-18   -2.578820E-19   -9.353483E-21   -2.615861E-22   -5.728801E-24   -9.967833E-26   -1.392104E-27   -1.563733E-29   -1.390671E-31
        -9.219678E-34
  26    -9.654545E-37   -7.013820E-34   -1.272049E-31   -1.546240E-29   -1.418405E-27   -1.012852E-25   -5.661111E-24   -2.462880E-22   -8.238911E-21   -2.083406E-19
        -3.940250E-18   -6.046702E-17   -1.206745E-15   -1.570135E-14   -8.846240E-14   -1.376742E-13   -8.846357E-14   -1.570196E-14   -1.206879E-15   -6.049655E-17
        -3.947165E-18   -2.091150E-19   -8.289307E-21   -2.484669E-22   -5.728801E-24   -1.028797E-25   -1.447900E-27   -1.590063E-29   -1.325128E-31   -7.542893E-34
        -1.402773E-36
  27     3.542660E-38    1.569224E-37   -5.941196E-34   -1.227323E-31   -1.550180E-29   -1.417817E-27   -9.817140E-26   -5.206933E-24   -2.110389E-22   -6.459711E-21
        -1.463313E-19   -2.404592E-18   -3.016674E-17   -4.301532E-16   -3.975235E-15   -1.769728E-14   -3.975302E-15   -4.301779E-16   -3.017323E-17   -2.406614E-18
        -1.466596E-19   -6.488524E-21   -2.125961E-22   -5.263901E-24   -9.967833E-26   -1.447900E-27   -1.596721E-29   -1.283995E-31   -6.488762E-34   -2.636338E-37
         3.286547E-38
  28     3.457919E-40    3.607868E-38    6.790310E-37   -5.564021E-34   -1.226453E-31   -1.544680E-29   -1.364966E-27   -8.928605E-26   -4.390187E-24   -1.619624E-22
        -4.420361E-21   -8.715241E-20   -1.229901E-18   -1.391221E-17   -1.028597E-16   -6.470981E-16   -1.028617E-16   -1.391342E-17   -1.230299E-18   -8.724405E-20
        -4.432011E-21   -1.628091E-22   -4.428919E-24   -9.049429E-26   -1.392104E-27   -1.590063E-29   -1.283995E-31   -6.120457E-34    2.706410E-37    3.383778E-38
         3.368239E-40
  29     1.543358E-42    3.072917E-40    3.597429E-38    6.836203E-37   -5.926483E-34   -1.269529E-31   -1.523361E-29   -1.259335E-27   -7.572988E-26   -3.359147E-24
        -1.092155E-22   -2.549203E-21   -4.196863E-20   -5.186604E-19   -3.929593E-18   -1.850168E-17   -3.929691E-18   -5.187184E-19   -4.198540E-20   -2.552351E-21
        -1.095491E-22   -3.379715E-24   -7.653418E-26   -1.280706E-27   -1.563733E-29   -1.325128E-31   -6.488762E-34    2.706410E-37    3.384657E-38    3.001260E-40
         1.529622E-42
  30     3.092815E-45    1.309721E-42    3.073445E-40    3.612089E-38    1.715737E-37   -6.984259E-34   -1.340314E-31   -1.471363E-29   -1.102994E-27   -5.910289E-26
        -2.274858E-24   -6.173771E-23   -1.154074E-21   -1.548456E-20   -1.349298E-19   -8.181340E-19   -1.349337E-19   -1.548663E-20   -1.154623E-21   -6.182671E-23
        -2.282934E-24   -5.953059E-26   -1.117302E-27   -1.503508E-29   -1.390671E-31   -7.542893E-34   -2.636338E-37    3.383778E-38    3.001260E-40    1.300052E-42
         3.097994E-45
  31      0.00000        3.092845E-45    1.543533E-42    3.460024E-40    3.552818E-38   -9.387260E-37   -8.684032E-34   -1.426166E-31   -1.387988E-29   -9.138410E-28
        -4.180468E-26   -1.309379E-24   -2.734596E-23   -4.014888E-22   -4.026244E-21   -3.009905E-20   -4.026371E-21   -4.015527E-22   -2.736147E-23   -1.311595E-24
        -4.197894E-26   -9.217726E-28   -1.410510E-29   -1.468307E-31   -9.219678E-34   -1.402773E-36    3.286547E-38    3.368239E-40    1.529622E-42    3.097994E-45
          0.00000    

 CONCENTRATION WILL BE SAVED ON UNIT 1030 AT END OF TIME STEP   11, STRESS PERIOD    2


  MASS BUDGET FOR ENTIRE MODEL AT END OF TIME STEP   11, STRESS PERIOD   2
  ---------------------------------------------------------------------------------------------------

     CUMULATIVE MASS      M       RATES FOR THIS TIME STEP      M/T          PACKAGE NAME    
     ------------------                 ------------------------                     ----------------

           IN:                                      IN:
           ---                                      ---
     STORAGE-AQUEOUS =  2275353096.7888       STORAGE-AQUEOUS =     7620926.3630     MST                              
                 WEL =  7884000000.0000                   WEL =           0.0000     SSM_WEL-1                        
                 CHD =           0.0000                   CHD =           0.0000     SSM_CHD-1                        

            TOTAL IN = 10159353096.7888              TOTAL IN =     7620926.3630

          OUT:                                     OUT:
          ----                                     ----
     STORAGE-AQUEOUS =  7887371356.6620       STORAGE-AQUEOUS =        7408.2674     MST                              
                 WEL =  2271981740.1268                   WEL =     7613518.0956     SSM_WEL-1                        
                 CHD =       7.5562E-18                   CHD =           0.0000     SSM_CHD-1                        

           TOTAL OUT = 10159353096.7888             TOTAL OUT =     7620926.3630

            IN - OUT =      -5.7220E-06              IN - OUT =       6.5193E-08

 PERCENT DISCREPANCY =          -0.00     PERCENT DISCREPANCY =           0.00




         TIME SUMMARY AT END OF TIME STEP   11 IN STRESS PERIOD    2
                    SECONDS     MINUTES      HOURS       DAYS        YEARS
                    -----------------------------------------------------------
   TIME STEP LENGTH 2.16991E+06  36165.      602.75      25.115     6.87602E-02
 STRESS PERIOD TIME 2.38690E+07 3.97817E+05  6630.3      276.26     0.75636    
         TOTAL TIME 1.02709E+08 1.71182E+06  28530.      1188.8      3.2547    


end timestep


start timestep kper="2" kstp="12" mode="normal"

 UBDSV1 SAVING  STORAGE-AQUEOUS ON UNIT   1029 AT TIME STEP     12, STRESS PERIOD      2
 UBDSV1 SAVING     FLOW-JA-FACE ON UNIT   1029 AT TIME STEP     12, STRESS PERIOD      2
 UBDSV06 SAVING  SOURCE-SINK MIX IN MODEL GWT_P06-MF6      PACKAGE GWT_P06-MF6     CONNECTED TO MODEL GWT_P06-MF6      PACKAGE SSM              ON UNIT   1029 AT TIME STEP     12, STRESS PERIOD      2
1
  CONCENTRATION IN LAYER   1 AT END OF TIME STEP  12 IN STRESS PERIOD    2
  ---------------------------------------------------------------------------

                1               2               3               4               5               6               7               8               9              10
               11              12              13              14              15              16              17              18              19              20
               21              22              23              24              25              26              27              28              29              30
               31
 ................................................................................................................................................................................................................................................................................................................................................................................................................................................................................................................
   1      0.00000        3.288074E-45    1.604188E-42    3.472134E-40    3.222332E-38   -1.897454E-36   -1.016351E-33   -1.575050E-31   -1.491742E-29   -9.647987E-28
        -4.356347E-26   -1.351598E-24   -2.806239E-23   -4.102221E-22   -4.096488E-21   -3.037814E-20   -4.096372E-21   -4.101688E-22   -2.805028E-23   -1.349877E-24
        -4.342298E-26   -9.580797E-28   -1.471707E-29   -1.535859E-31   -9.645359E-34   -1.432630E-36    3.497703E-38    3.570294E-40    1.619964E-42    3.284649E-45
          0.00000    
   2     3.288074E-45    1.353502E-42    3.084482E-40    3.363852E-38   -6.151476E-37   -8.318063E-34   -1.489829E-31   -1.589440E-29   -1.170134E-27   -6.185840E-26
        -2.355730E-24   -6.341464E-23   -1.179058E-21   -1.575708E-20   -1.367793E-19   -8.233485E-19   -1.367758E-19   -1.575534E-20   -1.178627E-21   -6.334534E-23
        -2.349205E-24   -6.149554E-26   -1.157400E-27   -1.559583E-29   -1.441295E-31   -7.762341E-34   -1.702519E-37    3.603035E-38    3.162142E-40    1.364550E-42
         3.284693E-45
   3     1.604188E-42    3.084482E-40    3.376076E-38   -1.234334E-38   -7.153786E-34   -1.416972E-31   -1.651086E-29   -1.340688E-27   -7.954837E-26   -3.490099E-24
        -1.124443E-22   -2.605622E-21   -4.269022E-20   -5.255236E-19   -3.974946E-18   -1.867042E-17   -3.974858E-18   -5.254751E-19   -4.267702E-20   -2.603164E-21
        -1.121740E-22   -3.472587E-24   -7.883013E-26   -1.320782E-27   -1.612107E-29   -1.361649E-31   -6.579997E-34    4.182741E-37    3.602460E-38    3.162730E-40
         1.620174E-42
   4     3.472134E-40    3.363852E-38   -1.234334E-38   -6.746238E-34   -1.371095E-31   -1.676798E-29   -1.456125E-27   -9.402817E-26   -4.574120E-24   -1.671822E-22
        -4.526147E-21   -8.867152E-20   -1.247444E-18   -1.406617E-17   -1.044345E-16   -6.499251E-16   -1.044327E-16   -1.406517E-17   -1.247130E-18   -8.859972E-20
        -4.516662E-21   -1.664573E-22   -4.539310E-24   -9.289529E-26   -1.429759E-27   -1.631382E-29   -1.312084E-31   -6.163709E-34    4.231687E-37    3.607619E-38
         3.572665E-40
   5     3.222332E-38   -6.151476E-37   -7.153786E-34   -1.371095E-31   -1.682946E-29   -1.513592E-27   -1.035263E-25   -5.435510E-24   -2.183267E-22   -6.628498E-21
        -1.491272E-19   -2.442471E-18   -3.078824E-17   -4.369051E-16   -3.988358E-15   -1.753384E-14   -3.988299E-15   -4.368840E-16   -3.078302E-17   -2.440880E-18
        -1.488584E-19   -6.603627E-21   -2.169136E-22   -5.381536E-24   -1.020464E-25   -1.483166E-27   -1.634722E-29   -1.311172E-31   -6.564453E-34   -1.545710E-37
         3.508819E-38
   6    -1.897454E-36   -8.318063E-34   -1.416972E-31   -1.676798E-29   -1.513592E-27   -1.068312E-25   -5.914529E-24   -2.551523E-22   -8.469556E-21   -2.127463E-19
        -4.011752E-18   -6.195150E-17   -1.225044E-15   -1.564438E-14   -8.519123E-14   -8.986467E-14   -8.519021E-14   -1.564385E-14   -1.224931E-15   -6.192800E-17
        -4.006047E-18   -2.120704E-19   -8.423196E-21   -2.530572E-22   -5.847029E-24   -1.051934E-25   -1.482558E-27   -1.629758E-29   -1.359007E-31   -7.731034E-34
        -1.403883E-36
   7    -1.016351E-33   -1.489829E-31   -1.651086E-29   -1.456125E-27   -1.035263E-25   -5.914529E-24   -2.686152E-22   -9.557449E-21   -2.624472E-19   -5.568512E-18
        -1.019018E-16   -2.503169E-15   -3.931318E-14   -1.752852E-13    3.470950E-12    6.293927E-11    3.470947E-12   -1.752803E-13   -3.931161E-14   -2.502888E-15
        -1.018224E-16   -5.555005E-18   -2.612740E-19   -9.493734E-21   -2.661877E-22   -5.845303E-24   -1.019784E-25   -1.428125E-27   -1.609213E-29   -1.437255E-31
        -9.599123E-34
   8    -1.575050E-31   -1.589440E-29   -1.340688E-27   -9.402817E-26   -5.435510E-24   -2.551523E-22   -9.557449E-21   -2.813992E-19   -6.560472E-18   -1.369318E-16
        -3.919950E-15   -7.074870E-14   -5.759021E-14    3.197444E-11    1.033147E-09    1.290395E-08    1.033147E-09    3.197437E-11   -5.757486E-14   -7.075034E-14
        -3.919304E-15   -1.367607E-16   -6.539330E-18   -2.799586E-19   -9.491649E-21   -2.529341E-22   -5.377260E-24   -9.278736E-26   -1.318638E-27   -1.556089E-29
        -1.531018E-31
   9    -1.491742E-29   -1.170134E-27   -7.954837E-26   -4.574120E-24   -2.183267E-22   -8.469556E-21   -2.624472E-19   -6.560472E-18   -1.510691E-16   -4.871863E-15
        -9.675111E-14    5.494194E-13    1.236348E-10    6.166169E-09    1.710867E-07    2.036540E-06    1.710867E-07    6.166168E-09    1.236346E-10    5.494702E-13
        -9.675953E-14   -4.870831E-15   -1.508401E-16   -6.538421E-18   -2.611851E-19   -8.418499E-21   -2.167421E-22   -4.534538E-24   -7.872286E-26   -1.155378E-27
        -1.468387E-29
  10    -9.647987E-28   -6.185840E-26   -3.490099E-24   -1.671822E-22   -6.628498E-21   -2.127463E-19   -5.568512E-18   -1.369318E-16   -4.871863E-15   -1.066249E-13
         1.253079E-12    2.641297E-10    1.849608E-08    8.252476E-07    2.134997E-05    2.339969E-04    2.134997E-05    8.252477E-07    1.849608E-08    2.641299E-10
         1.253170E-12   -1.066396E-13   -4.870800E-15   -1.367435E-16   -5.553227E-18   -2.119657E-19   -6.599322E-21   -1.663212E-22   -3.469097E-24   -6.141989E-26
        -9.566301E-28
  11    -4.356347E-26   -2.355730E-24   -1.124443E-22   -4.526147E-21   -1.491272E-19   -4.011752E-18   -1.019018E-16   -3.919950E-15   -9.675111E-14    1.253079E-12
         3.377541E-10    3.127128E-08    1.962856E-06    7.918274E-05    1.811214E-03    1.736251E-02    1.811214E-03    7.918274E-05    1.962856E-06    3.127127E-08
         3.377549E-10    1.253174E-12   -9.676245E-14   -3.919255E-15   -1.018072E-16   -4.004821E-18   -1.487964E-19   -4.514357E-21   -1.121054E-22   -2.347493E-24
        -4.338506E-26
  12    -1.351598E-24   -6.341464E-23   -2.605622E-21   -8.867152E-20   -2.442471E-18   -6.195150E-17   -2.503169E-15   -7.074870E-14    5.494194E-13    2.641297E-10
         3.127128E-08    2.589186E-06    1.438112E-04    4.898347E-03    9.083544E-02    0.688169        9.083544E-02    4.898347E-03    1.438112E-04    2.589186E-06
         3.127126E-08    2.641301E-10    5.494782E-13   -7.075223E-14   -2.502853E-15   -6.192212E-17   -2.440444E-18   -8.857920E-20   -2.602438E-21   -6.332426E-23
        -1.349340E-24
  13    -2.806239E-23   -1.179058E-21   -4.269022E-20   -1.247444E-18   -3.078824E-17   -1.225044E-15   -3.931318E-14   -5.759021E-14    1.236348E-10    1.849608E-08
         1.962856E-06    1.438112E-04    6.598199E-03    0.169455         2.14565         10.2481         2.14565        0.169455        6.598199E-03    1.438112E-04
         1.962856E-06    1.849608E-08    1.236346E-10   -5.757235E-14   -3.931162E-14   -1.224910E-15   -3.078173E-17   -1.247045E-18   -4.267331E-20   -1.178502E-21
        -2.804663E-23
  14    -4.102221E-22   -1.575708E-20   -5.255236E-19   -1.406617E-17   -4.369051E-16   -1.564438E-14   -1.752852E-13    3.197444E-11    6.166169E-09    8.252476E-07
         7.918274E-05    4.898347E-03    0.169455         2.71505         17.4194         42.4724         17.4194         2.71505        0.169455        4.898347E-03
         7.918274E-05    8.252477E-07    6.166168E-09    3.197436E-11   -1.752797E-13   -1.564378E-14   -4.368803E-16   -1.406497E-17   -5.254653E-19   -1.575498E-20
        -4.101572E-22
  15    -4.096488E-21   -1.367793E-19   -3.974946E-18   -1.044345E-16   -3.988358E-15   -8.519123E-14    3.470950E-12    1.033147E-09    1.710867E-07    2.134997E-05
         1.811214E-03    9.083544E-02     2.14565         17.4194         50.6456         71.2023         50.6456         17.4194         2.14565        9.083544E-02
         1.811214E-03    2.134997E-05    1.710867E-07    1.033147E-09    3.470947E-12   -8.519006E-14   -3.988291E-15   -1.044325E-16   -3.974848E-18   -1.367754E-19
        -4.096359E-21
  16    -3.037814E-20   -8.233485E-19   -1.867042E-17   -6.499251E-16   -1.753384E-14   -8.986467E-14    6.293927E-11    1.290395E-08    2.036540E-06    2.339969E-04
         1.736251E-02    0.688169         10.2481         42.4724         71.2023         86.1596         71.2023         42.4724         10.2481        0.688169    
         1.736251E-02    2.339969E-04    2.036540E-06    1.290395E-08    6.293927E-11   -8.986465E-14   -1.753384E-14   -6.499251E-16   -1.867042E-17   -8.233485E-19
        -3.037814E-20
  17    -4.096372E-21   -1.367758E-19   -3.974858E-18   -1.044327E-16   -3.988299E-15   -8.519021E-14    3.470947E-12    1.033147E-09    1.710867E-07    2.134997E-05
         1.811214E-03    9.083544E-02     2.14565         17.4194         50.6456         71.2023         50.6456         17.4194         2.14565        9.083544E-02
         1.811214E-03    2.134997E-05    1.710867E-07    1.033147E-09    3.470950E-12   -8.519123E-14   -3.988357E-15   -1.044345E-16   -3.974946E-18   -1.367793E-19
        -4.096488E-21
  18    -4.101688E-22   -1.575534E-20   -5.254751E-19   -1.406517E-17   -4.368840E-16   -1.564385E-14   -1.752803E-13    3.197437E-11    6.166168E-09    8.252477E-07
         7.918274E-05    4.898347E-03    0.169455         2.71505         17.4194         42.4724         17.4194         2.71505        0.169455        4.898347E-03
         7.918274E-05    8.252476E-07    6.166169E-09    3.197444E-11   -1.752852E-13   -1.564438E-14   -4.369051E-16   -1.406617E-17   -5.255236E-19   -1.575708E-20
        -4.102221E-22
  19    -2.805028E-23   -1.178627E-21   -4.267702E-20   -1.247130E-18   -3.078302E-17   -1.224931E-15   -3.931161E-14   -5.757486E-14    1.236346E-10    1.849608E-08
         1.962856E-06    1.438112E-04    6.598199E-03    0.169455         2.14565         10.2481         2.14565        0.169455        6.598199E-03    1.438112E-04
         1.962856E-06    1.849608E-08    1.236348E-10   -5.759020E-14   -3.931318E-14   -1.225044E-15   -3.078824E-17   -1.247444E-18   -4.269022E-20   -1.179058E-21
        -2.806239E-23
  20    -1.349877E-24   -6.334534E-23   -2.603164E-21   -8.859972E-20   -2.440880E-18   -6.192800E-17   -2.502888E-15   -7.075034E-14    5.494702E-13    2.641299E-10
         3.127127E-08    2.589186E-06    1.438112E-04    4.898347E-03    9.083544E-02    0.688169        9.083544E-02    4.898347E-03    1.438112E-04    2.589186E-06
         3.127128E-08    2.641297E-10    5.494194E-13   -7.074870E-14   -2.503169E-15   -6.195150E-17   -2.442471E-18   -8.867152E-20   -2.605622E-21   -6.341464E-23
        -1.351598E-24
  21    -4.342298E-26   -2.349205E-24   -1.121740E-22   -4.516662E-21   -1.488584E-19   -4.006047E-18   -1.018224E-16   -3.919304E-15   -9.675953E-14    1.253170E-12
         3.377549E-10    3.127126E-08    1.962856E-06    7.918274E-05    1.811214E-03    1.736251E-02    1.811214E-03    7.918274E-05    1.962856E-06    3.127128E-08
         3.377541E-10    1.253079E-12   -9.675111E-14   -3.919950E-15   -1.019018E-16   -4.011752E-18   -1.491272E-19   -4.526147E-21   -1.124443E-22   -2.355730E-24
        -4.356347E-26
  22    -9.580797E-28   -6.149554E-26   -3.472587E-24   -1.664573E-22   -6.603627E-21   -2.120704E-19   -5.555005E-18   -1.367607E-16   -4.870831E-15   -1.066396E-13
         1.253174E-12    2.641301E-10    1.849608E-08    8.252477E-07    2.134997E-05    2.339969E-04    2.134997E-05    8.252476E-07    1.849608E-08    2.641297E-10
         1.253079E-12   -1.066249E-13   -4.871863E-15   -1.369318E-16   -5.568512E-18   -2.127463E-19   -6.628498E-21   -1.671822E-22   -3.490099E-24   -6.185840E-26
        -9.647987E-28
  23    -1.471707E-29   -1.157400E-27   -7.883013E-26   -4.539310E-24   -2.169136E-22   -8.423196E-21   -2.612740E-19   -6.539330E-18   -1.508401E-16   -4.870800E-15
        -9.676245E-14    5.494782E-13    1.236346E-10    6.166168E-09    1.710867E-07    2.036540E-06    1.710867E-07    6.166169E-09    1.236348E-10    5.494194E-13
        -9.675111E-14   -4.871863E-15   -1.510691E-16   -6.560472E-18   -2.624472E-19   -8.469556E-21   -2.183267E-22   -4.574120E-24   -7.954837E-26   -1.170134E-27
        -1.491742E-29
  24    -1.535859E-31   -1.559583E-29   -1.320782E-27   -9.289529E-26   -5.381536E-24   -2.530572E-22   -9.493734E-21   -2.799586E-19   -6.538421E-18   -1.367435E-16
        -3.919255E-15   -7.075223E-14   -5.757235E-14    3.197436E-11    1.033147E-09    1.290395E-08    1.033147E-09    3.197444E-11   -5.759020E-14   -7.074870E-14
        -3.919950E-15   -1.369318E-16   -6.560472E-18   -2.813992E-19   -9.557449E-21   -2.551523E-22   -5.435510E-24   -9.402817E-26   -1.340688E-27   -1.589440E-29
        -1.575050E-31
  25    -9.645359E-34   -1.441295E-31   -1.612107E-29   -1.429759E-27   -1.020464E-25   -5.847029E-24   -2.661877E-22   -9.491649E-21   -2.611851E-19   -5.553227E-18
        -1.018072E-16   -2.502853E-15   -3.931162E-14   -1.752797E-13    3.470947E-12    6.293927E-11    3.470950E-12   -1.752852E-13   -3.931318E-14   -2.503169E-15
        -1.019018E-16   -5.568512E-18   -2.624472E-19   -9.557449E-21   -2.686152E-22   -5.914529E-24   -1.035263E-25   -1.456125E-27   -1.651086E-29   -1.489829E-31
        -1.016351E-33
  26    -1.432630E-36   -7.762341E-34   -1.361649E-31   -1.631382E-29   -1.483166E-27   -1.051934E-25   -5.845303E-24   -2.529341E-22   -8.418499E-21   -2.119657E-19
        -4.004821E-18   -6.192212E-17   -1.224910E-15   -1.564378E-14   -8.519006E-14   -8.986465E-14   -8.519123E-14   -1.564438E-14   -1.225044E-15   -6.195150E-17
        -4.011752E-18   -2.127463E-19   -8.469556E-21   -2.551523E-22   -5.914529E-24   -1.068312E-25   -1.513592E-27   -1.676798E-29   -1.416972E-31   -8.318063E-34
        -1.897453E-36
  27     3.497703E-38   -1.702519E-37   -6.579997E-34   -1.312084E-31   -1.634722E-29   -1.482558E-27   -1.019784E-25   -5.377260E-24   -2.167421E-22   -6.599322E-21
        -1.487964E-19   -2.440444E-18   -3.078173E-17   -4.368803E-16   -3.988291E-15   -1.753384E-14   -3.988357E-15   -4.369051E-16   -3.078824E-17   -2.442471E-18
        -1.491272E-19   -6.628498E-21   -2.183267E-22   -5.435510E-24   -1.035263E-25   -1.513592E-27   -1.682946E-29   -1.371095E-31   -7.153786E-34   -6.151475E-37
         3.222332E-38
  28     3.570294E-40    3.603035E-38    4.182741E-37   -6.163709E-34   -1.311172E-31   -1.629758E-29   -1.428125E-27   -9.278736E-26   -4.534538E-24   -1.663212E-22
        -4.514357E-21   -8.857920E-20   -1.247045E-18   -1.406497E-17   -1.044325E-16   -6.499251E-16   -1.044345E-16   -1.406617E-17   -1.247444E-18   -8.867152E-20
        -4.526147E-21   -1.671822E-22   -4.574120E-24   -9.402817E-26   -1.456125E-27   -1.676798E-29   -1.371095E-31   -6.746238E-34   -1.234325E-38    3.363852E-38
         3.472134E-40
  29     1.619964E-42    3.162142E-40    3.602460E-38    4.231687E-37   -6.564453E-34   -1.359007E-31   -1.609213E-29   -1.318638E-27   -7.872286E-26   -3.469097E-24
        -1.121054E-22   -2.602438E-21   -4.267331E-20   -5.254653E-19   -3.974848E-18   -1.867042E-17   -3.974946E-18   -5.255236E-19   -4.269022E-20   -2.605622E-21
        -1.124443E-22   -3.490099E-24   -7.954837E-26   -1.340688E-27   -1.651086E-29   -1.416972E-31   -7.153786E-34   -1.234325E-38    3.376076E-38    3.084482E-40
         1.604188E-42
  30     3.284649E-45    1.364550E-42    3.162730E-40    3.607619E-38   -1.545710E-37   -7.731034E-34   -1.437255E-31   -1.556089E-29   -1.155378E-27   -6.141989E-26
        -2.347493E-24   -6.332426E-23   -1.178502E-21   -1.575498E-20   -1.367754E-19   -8.233485E-19   -1.367793E-19   -1.575708E-20   -1.179058E-21   -6.341464E-23
        -2.355730E-24   -6.185840E-26   -1.170134E-27   -1.589440E-29   -1.489829E-31   -8.318063E-34   -6.151475E-37    3.363852E-38    3.084482E-40    1.353502E-42
         3.288074E-45
  31      0.00000        3.284693E-45    1.620174E-42    3.572665E-40    3.508819E-38   -1.403883E-36   -9.599123E-34   -1.531018E-31   -1.468387E-29   -9.566301E-28
        -4.338506E-26   -1.349340E-24   -2.804663E-23   -4.101572E-22   -4.096359E-21   -3.037814E-20   -4.096488E-21   -4.102221E-22   -2.806239E-23   -1.351598E-24
        -4.356347E-26   -9.647987E-28   -1.491742E-29   -1.575050E-31   -1.016351E-33   -1.897453E-36    3.222332E-38    3.472134E-40    1.604188E-42    3.288074E-45
          0.00000    

 CONCENTRATION WILL BE SAVED ON UNIT 1030 AT END OF TIME STEP   12, STRESS PERIOD    2


  MASS BUDGET FOR ENTIRE MODEL AT END OF TIME STEP   12, STRESS PERIOD   2
  ---------------------------------------------------------------------------------------------------

     CUMULATIVE MASS      M       RATES FOR THIS TIME STEP      M/T          PACKAGE NAME    
     ------------------                 ------------------------                     ----------------

           IN:                                      IN:
           ---                                      ---
     STORAGE-AQUEOUS =  2462478080.7851       STORAGE-AQUEOUS =     7450821.2806     MST                              
                 WEL =  7884000000.0000                   WEL =           0.0000     SSM_WEL-1                        
                 CHD =           0.0000                   CHD =           0.0000     SSM_CHD-1                        

            TOTAL IN = 10346478080.7851              TOTAL IN =     7450821.2806

          OUT:                                     OUT:
          ----                                     ----
     STORAGE-AQUEOUS =  7887537879.3584       STORAGE-AQUEOUS =        6630.4928     MST                              
                 WEL =  2458940201.4267                   WEL =     7444190.7878     SSM_WEL-1                        
                 CHD =       7.5562E-18                   CHD =           0.0000     SSM_CHD-1                        

           TOTAL OUT = 10346478080.7852             TOTAL OUT =     7450821.2806

            IN - OUT =      -3.8147E-06              IN - OUT =       2.1420E-08

 PERCENT DISCREPANCY =          -0.00     PERCENT DISCREPANCY =           0.00




         TIME SUMMARY AT END OF TIME STEP   12 IN STRESS PERIOD    2
                    SECONDS     MINUTES      HOURS       DAYS        YEARS
                    -----------------------------------------------------------
   TIME STEP LENGTH 2.16991E+06  36165.      602.75      25.115     6.87602E-02
 STRESS PERIOD TIME 2.60389E+07 4.33982E+05  7233.0      301.38     0.82512    
         TOTAL TIME 1.04879E+08 1.74798E+06  29133.      1213.9      3.3234    


end timestep


start timestep kper="2" kstp="13" mode="normal"

 UBDSV1 SAVING  STORAGE-AQUEOUS ON UNIT   1029 AT TIME STEP     13, STRESS PERIOD      2
 UBDSV1 SAVING     FLOW-JA-FACE ON UNIT   1029 AT TIME STEP     13, STRESS PERIOD      2
 UBDSV06 SAVING  SOURCE-SINK MIX IN MODEL GWT_P06-MF6      PACKAGE GWT_P06-MF6     CONNECTED TO MODEL GWT_P06-MF6      PACKAGE SSM              ON UNIT   1029 AT TIME STEP     13, STRESS PERIOD      2
1
  CONCENTRATION IN LAYER   1 AT END OF TIME STEP  13 IN STRESS PERIOD    2
  ---------------------------------------------------------------------------

                1               2               3               4               5               6               7               8               9              10
               11              12              13              14              15              16              17              18              19              20
               21              22              23              24              25              26              27              28              29              30
               31
 ................................................................................................................................................................................................................................................................................................................................................................................................................................................................................................................
   1      0.00000        3.486617E-45    1.680815E-42    3.573836E-40    3.137848E-38   -2.440228E-36   -1.117321E-33   -1.687751E-31   -1.576682E-29   -1.009429E-27
        -4.519577E-26   -1.392581E-24   -2.877734E-23   -4.190302E-22   -4.167375E-21   -3.065846E-20   -4.167258E-21   -4.189763E-22   -2.876504E-23   -1.390827E-24
        -4.505198E-26   -1.002512E-27   -1.555921E-29   -1.646838E-31   -1.062789E-33   -1.946507E-36    3.433623E-38    3.681072E-40    1.698811E-42    3.485187E-45
          0.00000    
   2     3.486617E-45    1.408357E-42    3.166875E-40    3.331510E-38   -1.000570E-36   -9.146011E-34   -1.594439E-31   -1.679301E-29   -1.224972E-27   -6.425846E-26
        -2.430330E-24   -6.503363E-23   -1.203870E-21   -1.603061E-20   -1.386418E-19   -8.286276E-19   -1.386383E-19   -1.602886E-20   -1.203434E-21   -6.496325E-23
        -2.423676E-24   -6.388656E-26   -1.211848E-27   -1.648345E-29   -1.543806E-31   -8.562520E-34   -5.301590E-37    3.586622E-38    3.250925E-40    1.420897E-42
         3.485249E-45
   3     1.680815E-42    3.166875E-40    3.357403E-38   -3.224046E-37   -7.862952E-34   -1.513754E-31   -1.742384E-29   -1.402949E-27   -8.265737E-26   -3.603274E-24
        -1.153962E-22   -2.659690E-21   -4.340378E-20   -5.323978E-19   -4.020916E-18   -1.883871E-17   -4.020828E-18   -5.323489E-19   -4.339047E-20   -2.657202E-21
        -1.151215E-22   -3.585398E-24   -8.192047E-26   -1.382421E-27   -1.701977E-29   -1.456108E-31   -7.261864E-34    1.314780E-37    3.598130E-38    3.251579E-40
         1.699060E-42
   4     3.573836E-40    3.331510E-38   -3.224046E-37   -7.413094E-34   -1.462803E-31   -1.767394E-29   -1.522558E-27   -9.767319E-26   -4.723028E-24   -1.716422E-22
        -4.621698E-21   -9.011897E-20   -1.264921E-18   -1.422199E-17   -1.059943E-16   -6.526122E-16   -1.059925E-16   -1.422098E-17   -1.264605E-18   -9.004663E-20
        -4.612100E-21   -1.709052E-22   -4.687465E-24   -9.651020E-26   -1.495363E-27   -1.720336E-29   -1.401369E-31   -6.803412E-34    1.366948E-37    3.591593E-38
         3.683731E-40
   5     3.137848E-38   -1.000570E-36   -7.862952E-34   -1.462803E-31   -1.772984E-29   -1.581740E-27   -1.074947E-25   -5.611507E-24   -2.241726E-22   -6.770654E-21
        -1.516335E-19   -2.479290E-18   -3.140952E-17   -4.434881E-16   -3.998498E-15   -1.736614E-14   -3.998440E-15   -4.434669E-16   -3.140428E-17   -2.477694E-18
        -1.513627E-19   -6.745473E-21   -2.227350E-22   -5.556334E-24   -1.059750E-25   -1.550360E-27   -1.723026E-29   -1.400415E-31   -7.245450E-34   -5.133899E-37
         3.445766E-38
   6    -2.440228E-36   -9.146011E-34   -1.513754E-31   -1.767394E-29   -1.581740E-27   -1.109060E-25   -6.105004E-24   -2.619731E-22   -8.652703E-21   -2.164396E-19
        -4.078198E-18   -6.341553E-17   -1.242598E-15   -1.556213E-14   -8.120605E-14   -3.438189E-14   -8.120504E-14   -1.556161E-14   -1.242484E-15   -6.339212E-17
        -4.072481E-18   -2.157585E-19   -8.605742E-21   -2.598407E-22   -6.035984E-24   -1.092241E-25   -1.549730E-27   -1.718646E-29   -1.453339E-31   -8.529384E-34
        -1.915621E-36
   7    -1.117321E-33   -1.594439E-31   -1.742384E-29   -1.522558E-27   -1.074947E-25   -6.105004E-24   -2.757870E-22   -9.764745E-21   -2.670941E-19   -5.666253E-18
        -1.044411E-16   -2.535385E-15   -3.890400E-14   -1.400958E-13    4.427763E-12    7.379681E-11    4.427760E-12   -1.400910E-13   -3.890243E-14   -2.535109E-15
        -1.043623E-16   -5.652717E-18   -2.659115E-19   -9.700186E-21   -2.733158E-22   -6.034216E-24   -1.059051E-25   -1.493673E-27   -1.698964E-29   -1.539567E-31
        -1.057884E-33
   8    -1.687751E-31   -1.679301E-29   -1.402949E-27   -9.767319E-26   -5.611507E-24   -2.619731E-22   -9.764745E-21   -2.864135E-19   -6.678607E-18   -1.403884E-16
        -3.963600E-15   -6.918460E-14    9.393554E-14    3.846625E-11    1.198771E-09    1.470648E-08    1.198771E-09    3.846618E-11    9.395037E-14   -6.918615E-14
        -3.962971E-15   -1.402191E-16   -6.657419E-18   -2.849611E-19   -9.698071E-21   -2.597153E-22   -5.551956E-24   -9.639913E-26   -1.380202E-27   -1.644708E-29
        -1.641757E-31
   9    -1.576682E-29   -1.224972E-27   -8.265737E-26   -4.723028E-24   -2.241726E-22   -8.652703E-21   -2.670941E-19   -6.678607E-18   -1.548885E-16   -4.920075E-15
        -9.346142E-14    9.228056E-13    1.465428E-10    7.107806E-09    1.933042E-07    2.252640E-06    1.933042E-07    7.107806E-09    1.465426E-10    9.228552E-13
        -9.346961E-14   -4.919074E-15   -1.546620E-16   -6.656508E-18   -2.658218E-19   -8.600982E-21   -2.225603E-22   -4.682582E-24   -8.181020E-26   -1.209759E-27
        -1.552470E-29
  10    -1.009429E-27   -6.425846E-26   -3.603274E-24   -1.716422E-22   -6.770654E-21   -2.164396E-19   -5.666253E-18   -1.403884E-16   -4.920075E-15   -1.024635E-13
         1.831647E-12    3.111765E-10    2.120800E-08    9.245122E-07    2.335164E-05    2.499803E-04    2.335164E-05    9.245122E-07    2.120799E-08    3.111766E-10
         1.831737E-12   -1.024779E-13   -4.919045E-15   -1.402021E-16   -5.650936E-18   -2.156530E-19   -6.741113E-21   -1.707668E-22   -3.581832E-24   -6.380893E-26
        -1.001017E-27
  11    -4.519577E-26   -2.430330E-24   -1.153962E-22   -4.621698E-21   -1.516335E-19   -4.078198E-18   -1.044411E-16   -3.963600E-15   -9.346142E-14    1.831647E-12
         3.972103E-10    3.575287E-08    2.186323E-06    8.580096E-05    1.910582E-03    1.785994E-02    1.910582E-03    8.580096E-05    2.186323E-06    3.575286E-08
         3.972111E-10    1.831741E-12   -9.347249E-14   -3.962926E-15   -1.043473E-16   -4.071252E-18   -1.513002E-19   -4.609768E-21   -1.150519E-22   -2.421930E-24
        -4.501315E-26
  12    -1.392581E-24   -6.503363E-23   -2.659690E-21   -9.011897E-20   -2.479290E-18   -6.341553E-17   -2.535385E-15   -6.918460E-14    9.228056E-13    3.111765E-10
         3.575287E-08    2.878292E-06    1.550345E-04    5.118122E-03    9.221755E-02    0.681800        9.221755E-02    5.118122E-03    1.550345E-04    2.878293E-06
         3.575285E-08    3.111768E-10    9.228631E-13   -6.918802E-14   -2.535076E-15   -6.338629E-17   -2.477257E-18   -9.002597E-20   -2.656468E-21   -6.494186E-23
        -1.390280E-24
  13    -2.877734E-23   -1.203870E-21   -4.340378E-20   -1.264921E-18   -3.140952E-17   -1.242598E-15   -3.890400E-14    9.393554E-14    1.465428E-10    2.120800E-08
         2.186323E-06    1.550345E-04    6.871399E-03    0.170599         2.10357         9.90195         2.10357        0.170599        6.871399E-03    1.550345E-04
         2.186323E-06    2.120799E-08    1.465426E-10    9.395284E-14   -3.890244E-14   -1.242464E-15   -3.140300E-17   -1.264521E-18   -4.338674E-20   -1.203307E-21
        -2.876134E-23
  14    -4.190302E-22   -1.603061E-20   -5.323978E-19   -1.422199E-17   -4.434881E-16   -1.556213E-14   -1.400958E-13    3.846625E-11    7.107806E-09    9.245122E-07
         8.580096E-05    5.118122E-03    0.170599         2.64877         16.7536         40.8495         16.7536         2.64877        0.170599        5.118122E-03
         8.580096E-05    9.245122E-07    7.107805E-09    3.846617E-11   -1.400904E-13   -1.556154E-14   -4.434632E-16   -1.422078E-17   -5.323391E-19   -1.602849E-20
        -4.189645E-22
  15    -4.167375E-21   -1.386418E-19   -4.020916E-18   -1.059943E-16   -3.998498E-15   -8.120605E-14    4.427763E-12    1.198771E-09    1.933042E-07    2.335164E-05
         1.910582E-03    9.221755E-02     2.10357         16.7536         48.8450         68.9168         48.8450         16.7536         2.10357        9.221755E-02
         1.910582E-03    2.335164E-05    1.933042E-07    1.198771E-09    4.427759E-12   -8.120490E-14   -3.998432E-15   -1.059922E-16   -4.020817E-18   -1.386378E-19
        -4.167245E-21
  16    -3.065846E-20   -8.286276E-19   -1.883871E-17   -6.526122E-16   -1.736614E-14   -3.438189E-14    7.379681E-11    1.470648E-08    2.252640E-06    2.499803E-04
         1.785994E-02    0.681800         9.90195         40.8495         68.9168         84.1162         68.9168         40.8495         9.90195        0.681800    
         1.785994E-02    2.499803E-04    2.252640E-06    1.470648E-08    7.379681E-11   -3.438187E-14   -1.736614E-14   -6.526122E-16   -1.883871E-17   -8.286276E-19
        -3.065847E-20
  17    -4.167258E-21   -1.386383E-19   -4.020828E-18   -1.059925E-16   -3.998440E-15   -8.120504E-14    4.427760E-12    1.198771E-09    1.933042E-07    2.335164E-05
         1.910582E-03    9.221755E-02     2.10357         16.7536         48.8450         68.9168         48.8450         16.7536         2.10357        9.221755E-02
         1.910582E-03    2.335164E-05    1.933042E-07    1.198771E-09    4.427763E-12   -8.120605E-14   -3.998498E-15   -1.059943E-16   -4.020916E-18   -1.386418E-19
        -4.167375E-21
  18    -4.189763E-22   -1.602886E-20   -5.323489E-19   -1.422098E-17   -4.434669E-16   -1.556161E-14   -1.400910E-13    3.846618E-11    7.107806E-09    9.245122E-07
         8.580096E-05    5.118122E-03    0.170599         2.64877         16.7536         40.8495         16.7536         2.64877        0.170599        5.118122E-03
         8.580096E-05    9.245122E-07    7.107806E-09    3.846625E-11   -1.400958E-13   -1.556213E-14   -4.434881E-16   -1.422199E-17   -5.323978E-19   -1.603061E-20
        -4.190302E-22
  19    -2.876504E-23   -1.203434E-21   -4.339047E-20   -1.264605E-18   -3.140428E-17   -1.242484E-15   -3.890243E-14    9.395037E-14    1.465426E-10    2.120799E-08
         2.186323E-06    1.550345E-04    6.871399E-03    0.170599         2.10357         9.90195         2.10357        0.170599        6.871399E-03    1.550345E-04
         2.186323E-06    2.120800E-08    1.465428E-10    9.393555E-14   -3.890400E-14   -1.242598E-15   -3.140952E-17   -1.264921E-18   -4.340378E-20   -1.203870E-21
        -2.877734E-23
  20    -1.390827E-24   -6.496325E-23   -2.657202E-21   -9.004663E-20   -2.477694E-18   -6.339212E-17   -2.535109E-15   -6.918615E-14    9.228552E-13    3.111766E-10
         3.575286E-08    2.878293E-06    1.550345E-04    5.118122E-03    9.221755E-02    0.681800        9.221755E-02    5.118122E-03    1.550345E-04    2.878292E-06
         3.575287E-08    3.111765E-10    9.228056E-13   -6.918460E-14   -2.535385E-15   -6.341553E-17   -2.479290E-18   -9.011897E-20   -2.659690E-21   -6.503363E-23
        -1.392581E-24
  21    -4.505198E-26   -2.423676E-24   -1.151215E-22   -4.612100E-21   -1.513627E-19   -4.072481E-18   -1.043623E-16   -3.962971E-15   -9.346961E-14    1.831737E-12
         3.972111E-10    3.575285E-08    2.186323E-06    8.580096E-05    1.910582E-03    1.785994E-02    1.910582E-03    8.580096E-05    2.186323E-06    3.575287E-08
         3.972103E-10    1.831647E-12   -9.346142E-14   -3.963600E-15   -1.044411E-16   -4.078198E-18   -1.516335E-19   -4.621698E-21   -1.153962E-22   -2.430330E-24
        -4.519577E-26
  22    -1.002512E-27   -6.388656E-26   -3.585398E-24   -1.709052E-22   -6.745473E-21   -2.157585E-19   -5.652717E-18   -1.402191E-16   -4.919074E-15   -1.024779E-13
         1.831741E-12    3.111768E-10    2.120799E-08    9.245122E-07    2.335164E-05    2.499803E-04    2.335164E-05    9.245122E-07    2.120800E-08    3.111765E-10
         1.831647E-12   -1.024635E-13   -4.920075E-15   -1.403884E-16   -5.666253E-18   -2.164396E-19   -6.770654E-21   -1.716422E-22   -3.603274E-24   -6.425846E-26
        -1.009429E-27
  23    -1.555921E-29   -1.211848E-27   -8.192047E-26   -4.687465E-24   -2.227350E-22   -8.605742E-21   -2.659115E-19   -6.657419E-18   -1.546620E-16   -4.919045E-15
        -9.347249E-14    9.228631E-13    1.465426E-10    7.107805E-09    1.933042E-07    2.252640E-06    1.933042E-07    7.107806E-09    1.465428E-10    9.228056E-13
        -9.346142E-14   -4.920075E-15   -1.548885E-16   -6.678607E-18   -2.670941E-19   -8.652703E-21   -2.241726E-22   -4.723028E-24   -8.265737E-26   -1.224972E-27
        -1.576682E-29
  24    -1.646838E-31   -1.648345E-29   -1.382421E-27   -9.651020E-26   -5.556334E-24   -2.598407E-22   -9.700186E-21   -2.849611E-19   -6.656508E-18   -1.402021E-16
        -3.962926E-15   -6.918802E-14    9.395284E-14    3.846617E-11    1.198771E-09    1.470648E-08    1.198771E-09    3.846625E-11    9.393555E-14   -6.918460E-14
        -3.963600E-15   -1.403884E-16   -6.678607E-18   -2.864135E-19   -9.764745E-21   -2.619731E-22   -5.611507E-24   -9.767319E-26   -1.402949E-27   -1.679301E-29
        -1.687751E-31
  25    -1.062789E-33   -1.543806E-31   -1.701977E-29   -1.495363E-27   -1.059750E-25   -6.035984E-24   -2.733158E-22   -9.698071E-21   -2.658218E-19   -5.650936E-18
        -1.043473E-16   -2.535076E-15   -3.890244E-14   -1.400904E-13    4.427759E-12    7.379681E-11    4.427763E-12   -1.400958E-13   -3.890400E-14   -2.535385E-15
        -1.044411E-16   -5.666253E-18   -2.670941E-19   -9.764745E-21   -2.757870E-22   -6.105004E-24   -1.074947E-25   -1.522558E-27   -1.742384E-29   -1.594439E-31
        -1.117321E-33
  26    -1.946507E-36   -8.562520E-34   -1.456108E-31   -1.720336E-29   -1.550360E-27   -1.092241E-25   -6.034216E-24   -2.597153E-22   -8.600982E-21   -2.156530E-19
        -4.071252E-18   -6.338629E-17   -1.242464E-15   -1.556154E-14   -8.120490E-14   -3.438187E-14   -8.120605E-14   -1.556213E-14   -1.242598E-15   -6.341553E-17
        -4.078198E-18   -2.164396E-19   -8.652703E-21   -2.619731E-22   -6.105004E-24   -1.109060E-25   -1.581740E-27   -1.767394E-29   -1.513754E-31   -9.146011E-34
        -2.440228E-36
  27     3.433623E-38   -5.301590E-37   -7.261864E-34   -1.401369E-31   -1.723026E-29   -1.549730E-27   -1.059051E-25   -5.551956E-24   -2.225603E-22   -6.741113E-21
        -1.513002E-19   -2.477257E-18   -3.140300E-17   -4.434632E-16   -3.998432E-15   -1.736614E-14   -3.998498E-15   -4.434881E-16   -3.140952E-17   -2.479290E-18
        -1.516335E-19   -6.770654E-21   -2.241726E-22   -5.611507E-24   -1.074947E-25   -1.581740E-27   -1.772984E-29   -1.462803E-31   -7.862952E-34   -1.000570E-36
         3.137849E-38
  28     3.681072E-40    3.586622E-38    1.314780E-37   -6.803412E-34   -1.400415E-31   -1.718646E-29   -1.493673E-27   -9.639913E-26   -4.682582E-24   -1.707668E-22
        -4.609768E-21   -9.002597E-20   -1.264521E-18   -1.422078E-17   -1.059922E-16   -6.526122E-16   -1.059943E-16   -1.422199E-17   -1.264921E-18   -9.011897E-20
        -4.621698E-21   -1.716422E-22   -4.723028E-24   -9.767319E-26   -1.522558E-27   -1.767394E-29   -1.462803E-31   -7.413094E-34   -3.224046E-37    3.331510E-38
         3.573836E-40
  29     1.698811E-42    3.250925E-40    3.598130E-38    1.366948E-37   -7.245450E-34   -1.453339E-31   -1.698964E-29   -1.380202E-27   -8.181020E-26   -3.581832E-24
        -1.150519E-22   -2.656468E-21   -4.338674E-20   -5.323391E-19   -4.020817E-18   -1.883871E-17   -4.020916E-18   -5.323978E-19   -4.340378E-20   -2.659690E-21
        -1.153962E-22   -3.603274E-24   -8.265737E-26   -1.402949E-27   -1.742384E-29   -1.513754E-31   -7.862952E-34   -3.224046E-37    3.357403E-38    3.166875E-40
         1.680815E-42
  30     3.485187E-45    1.420897E-42    3.251579E-40    3.591593E-38   -5.133899E-37   -8.529384E-34   -1.539567E-31   -1.644708E-29   -1.209759E-27   -6.380893E-26
        -2.421930E-24   -6.494186E-23   -1.203307E-21   -1.602849E-20   -1.386378E-19   -8.286276E-19   -1.386418E-19   -1.603061E-20   -1.203870E-21   -6.503363E-23
        -2.430330E-24   -6.425846E-26   -1.224972E-27   -1.679301E-29   -1.594439E-31   -9.146011E-34   -1.000570E-36    3.331510E-38    3.166875E-40    1.408357E-42
         3.486617E-45
  31      0.00000        3.485249E-45    1.699060E-42    3.683731E-40    3.445766E-38   -1.915621E-36   -1.057884E-33   -1.641757E-31   -1.552470E-29   -1.001017E-27
        -4.501315E-26   -1.390280E-24   -2.876134E-23   -4.189645E-22   -4.167245E-21   -3.065847E-20   -4.167375E-21   -4.190302E-22   -2.877734E-23   -1.392581E-24
        -4.519577E-26   -1.009429E-27   -1.576682E-29   -1.687751E-31   -1.117321E-33   -2.440228E-36    3.137849E-38    3.573836E-40    1.680815E-42    3.486617E-45
          0.00000    

 CONCENTRATION WILL BE SAVED ON UNIT 1030 AT END OF TIME STEP   13, STRESS PERIOD    2


  MASS BUDGET FOR ENTIRE MODEL AT END OF TIME STEP   13, STRESS PERIOD   2
  ---------------------------------------------------------------------------------------------------

     CUMULATIVE MASS      M       RATES FOR THIS TIME STEP      M/T          PACKAGE NAME    
     ------------------                 ------------------------                     ----------------

           IN:                                      IN:
           ---                                      ---
     STORAGE-AQUEOUS =  2645150339.6012       STORAGE-AQUEOUS =     7273525.5565     MST                              
                 WEL =  7884000000.0000                   WEL =           0.0000     SSM_WEL-1                        
                 CHD =           0.0000                   CHD =           0.0000     SSM_CHD-1                        

            TOTAL IN = 10529150339.6012              TOTAL IN =     7273525.5565

          OUT:                                     OUT:
          ----                                     ----
     STORAGE-AQUEOUS =  7887685733.5658       STORAGE-AQUEOUS =        5887.1630     MST                              
                 WEL =  2641464606.0354                   WEL =     7267638.3936     SSM_WEL-1                        
                 CHD =       7.5562E-18                   CHD =           0.0000     SSM_CHD-1                        

           TOTAL OUT = 10529150339.6012             TOTAL OUT =     7273525.5565

            IN - OUT =      -1.9073E-06              IN - OUT =       9.9652E-08

 PERCENT DISCREPANCY =          -0.00     PERCENT DISCREPANCY =           0.00




         TIME SUMMARY AT END OF TIME STEP   13 IN STRESS PERIOD    2
                    SECONDS     MINUTES      HOURS       DAYS        YEARS
                    -----------------------------------------------------------
   TIME STEP LENGTH 2.16991E+06  36165.      602.75      25.115     6.87602E-02
 STRESS PERIOD TIME 2.82088E+07 4.70147E+05  7835.8      326.49     0.89388    
         TOTAL TIME 1.07049E+08 1.78415E+06  29736.      1239.0      3.3922    


end timestep


start timestep kper="2" kstp="14" mode="normal"

 UBDSV1 SAVING  STORAGE-AQUEOUS ON UNIT   1029 AT TIME STEP     14, STRESS PERIOD      2
 UBDSV1 SAVING     FLOW-JA-FACE ON UNIT   1029 AT TIME STEP     14, STRESS PERIOD      2
 UBDSV06 SAVING  SOURCE-SINK MIX IN MODEL GWT_P06-MF6      PACKAGE GWT_P06-MF6     CONNECTED TO MODEL GWT_P06-MF6      PACKAGE SSM              ON UNIT   1029 AT TIME STEP     14, STRESS PERIOD      2
1
  CONCENTRATION IN LAYER   1 AT END OF TIME STEP  14 IN STRESS PERIOD    2
  ---------------------------------------------------------------------------

                1               2               3               4               5               6               7               8               9              10
               11              12              13              14              15              16              17              18              19              20
               21              22              23              24              25              26              27              28              29              30
               31
 ................................................................................................................................................................................................................................................................................................................................................................................................................................................................................................................
   1      0.00000        3.693840E-45    1.759453E-42    3.672743E-40    3.031222E-38   -3.034327E-36   -1.225235E-33   -1.806673E-31   -1.665468E-29   -1.055709E-27
        -4.687699E-26   -1.434561E-24   -2.950651E-23   -4.279785E-22   -4.239039E-21   -3.094005E-20   -4.238921E-21   -4.279239E-22   -2.949402E-23   -1.432775E-24
        -4.672981E-26   -1.048591E-27   -1.643960E-29   -1.763978E-31   -1.167870E-33   -2.510257E-36    3.348599E-38    3.789685E-40    1.779860E-42    3.694667E-45
          0.00000    
   2     3.693840E-45    1.464594E-42    3.248116E-40    3.285620E-38   -1.422119E-36   -1.002954E-33   -1.704742E-31   -1.773237E-29   -1.281877E-27   -6.673250E-26
        -2.506768E-24   -6.668410E-23   -1.229065E-21   -1.630726E-20   -1.405214E-19   -8.339705E-19   -1.405179E-19   -1.630549E-20   -1.228623E-21   -6.661263E-23
        -2.499983E-24   -6.635138E-26   -1.268353E-27   -1.741148E-29   -1.651935E-31   -9.417121E-34   -9.249696E-37    3.557534E-38    3.338966E-40    1.478746E-42
         3.694749E-45
   3     1.759453E-42    3.248116E-40    3.327721E-38   -6.612809E-37   -8.618560E-34   -1.615690E-31   -1.837772E-29   -1.467558E-27   -8.586345E-26   -3.719291E-24
        -1.184055E-22   -2.714563E-21   -4.412626E-20   -5.393425E-19   -4.067586E-18   -1.900647E-17   -4.067497E-18   -5.392933E-19   -4.411284E-20   -2.712046E-21
        -1.181264E-22   -3.701045E-24   -8.510752E-26   -1.446391E-27   -1.795894E-29   -1.555638E-31   -7.989059E-34   -1.830534E-37    3.583556E-38    3.339692E-40
         1.780154E-42
   4     3.672743E-40    3.285620E-38   -6.612809E-37   -8.123149E-34   -1.559317E-31   -1.861991E-29   -1.591475E-27   -1.014320E-25   -4.875712E-24   -1.761904E-22
        -4.718687E-21   -9.158697E-20   -1.282732E-18   -1.438070E-17   -1.075390E-16   -6.551674E-16   -1.075372E-16   -1.437969E-17   -1.282415E-18   -9.151409E-20
        -4.708975E-21   -1.754411E-22   -4.839384E-24   -1.002383E-25   -1.563431E-27   -1.813241E-29   -1.495375E-31   -7.485216E-34   -1.774967E-37    3.562919E-38
         3.792658E-40
   5     3.031222E-38   -1.422119E-36   -8.618560E-34   -1.559317E-31   -1.866975E-29   -1.652419E-27   -1.115865E-25   -5.791976E-24   -2.301355E-22   -6.915030E-21
        -1.541796E-19   -2.517069E-18   -3.203643E-17   -4.499092E-16   -4.005235E-15   -1.720803E-14   -4.005177E-15   -4.498878E-16   -3.203118E-17   -2.515469E-18
        -1.539069E-19   -6.889538E-21   -2.286731E-22   -5.735585E-24   -1.100262E-25   -1.620059E-27   -1.815228E-29   -1.494376E-31   -7.971734E-34   -9.070507E-37
         3.361843E-38
   6    -3.034327E-36   -1.002954E-33   -1.615690E-31   -1.861991E-29   -1.652419E-27   -1.151073E-25   -6.300315E-24   -2.689315E-22   -8.838802E-21   -2.201970E-19
        -4.146494E-18   -6.488656E-17   -1.259429E-15   -1.545275E-14   -7.640321E-14    2.946540E-14   -7.640220E-14   -1.545223E-14   -1.259316E-15   -6.486324E-17
        -4.140764E-18   -2.195107E-19   -8.791238E-21   -2.667613E-22   -6.229750E-24   -1.133802E-25   -1.619407E-27   -1.811482E-29   -1.552736E-31   -9.382068E-34
        -2.477108E-36
   7    -1.225235E-33   -1.704742E-31   -1.837772E-29   -1.591475E-27   -1.115865E-25   -6.300315E-24   -2.831037E-22   -9.975437E-21   -2.718255E-19   -5.766739E-18
        -1.069825E-16   -2.565294E-15   -3.834418E-14   -9.860656E-14    5.526239E-12    8.607354E-11    5.526236E-12   -9.860185E-14   -3.834262E-14   -2.565021E-15
        -1.069044E-16   -5.753175E-18   -2.706334E-19   -9.910028E-21   -2.805883E-22   -6.227939E-24   -1.099542E-25   -1.561682E-27   -1.792758E-29   -1.647489E-31
        -1.162671E-33
   8    -1.806673E-31   -1.773237E-29   -1.467558E-27   -1.014320E-25   -5.791976E-24   -2.689315E-22   -9.975437E-21   -2.915202E-19   -6.800047E-18   -1.438371E-16
        -4.002203E-15   -6.717022E-14    2.696566E-13    4.588617E-11    1.384422E-09    1.668230E-08    1.384422E-09    4.588610E-11    2.696709E-13   -6.717170E-14
        -4.001589E-15   -1.436694E-16   -6.778815E-18   -2.900561E-19   -9.907884E-21   -2.666335E-22   -5.731101E-24   -1.001240E-25   -1.444097E-27   -1.737363E-29
        -1.758648E-31
   9    -1.665468E-29   -1.281877E-27   -8.586345E-26   -4.875712E-24   -2.301355E-22   -8.838802E-21   -2.718255E-19   -6.800047E-18   -1.586942E-16   -4.960885E-15
        -8.934576E-14    1.354925E-12    1.726014E-10    8.154249E-09    2.173767E-07    2.480904E-06    2.173767E-07    8.154249E-09    1.726012E-10    1.354973E-12
        -8.935373E-14   -4.959915E-15   -1.584701E-16   -6.777903E-18   -2.705430E-19   -8.786413E-21   -2.284952E-22   -4.834389E-24   -8.499420E-26   -1.266195E-27
        -1.640373E-29
  10    -1.055709E-27   -6.673250E-26   -3.719291E-24   -1.761904E-22   -6.915030E-21   -2.201970E-19   -5.766739E-18   -1.438371E-16   -4.960885E-15   -9.729410E-14
         2.500471E-12    3.645174E-10    2.420278E-08    1.031005E-06    2.543706E-05    2.661447E-04    2.543706E-05    1.031005E-06    2.420277E-08    3.645175E-10
         2.500559E-12   -9.730818E-14   -4.959888E-15   -1.436527E-16   -5.751391E-18   -2.194044E-19   -6.885123E-21   -1.753003E-22   -3.697403E-24   -6.627173E-26
        -1.047050E-27
  11    -4.687699E-26   -2.506768E-24   -1.184055E-22   -4.718687E-21   -1.541796E-19   -4.146494E-18   -1.069825E-16   -4.002203E-15   -8.934576E-14    2.500471E-12
         4.645434E-10    4.068565E-08    2.424495E-06    9.261668E-05    2.009307E-03    1.833301E-02    2.009307E-03    9.261668E-05    2.424496E-06    4.068564E-08
         4.645442E-10    2.500562E-12   -8.935656E-14   -4.001548E-15   -1.068895E-16   -4.139534E-18   -1.538440E-19   -4.706616E-21   -1.180557E-22   -2.498202E-24
        -4.669007E-26
  12    -1.434561E-24   -6.668410E-23   -2.714563E-21   -9.158697E-20   -2.517069E-18   -6.488656E-17   -2.565294E-15   -6.717022E-14    1.354925E-12    3.645174E-10
         4.068565E-08    3.185712E-06    1.665155E-04    5.333000E-03    9.346650E-02    0.675083        9.346650E-02    5.333000E-03    1.665155E-04    3.185712E-06
         4.068564E-08    3.645177E-10    1.354981E-12   -6.717354E-14   -2.564990E-15   -6.485747E-17   -2.515032E-18   -9.149329E-20   -2.711304E-21   -6.659092E-23
        -1.432217E-24
  13    -2.950651E-23   -1.229065E-21   -4.412626E-20   -1.282732E-18   -3.203643E-17   -1.259429E-15   -3.834418E-14    2.696566E-13    1.726014E-10    2.420278E-08
         2.424495E-06    1.665155E-04    7.136584E-03    0.171505         2.06160         9.56845         2.06160        0.171505        7.136584E-03    1.665155E-04
         2.424496E-06    2.420277E-08    1.726012E-10    2.696733E-13   -3.834263E-14   -1.259296E-15   -3.202990E-17   -1.282330E-18   -4.410908E-20   -1.228495E-21
        -2.949026E-23
  14    -4.279785E-22   -1.630726E-20   -5.393425E-19   -1.438070E-17   -4.499092E-16   -1.545275E-14   -9.860656E-14    4.588617E-11    8.154249E-09    1.031005E-06
         9.261668E-05    5.333000E-03    0.171505         2.58353         16.1161         39.2881         16.1161         2.58353        0.171505        5.333000E-03
         9.261668E-05    1.031005E-06    8.154248E-09    4.588609E-11   -9.860128E-14   -1.545216E-14   -4.498842E-16   -1.437950E-17   -5.392834E-19   -1.630512E-20
        -4.279120E-22
  15    -4.239039E-21   -1.405214E-19   -4.067586E-18   -1.075390E-16   -4.005235E-15   -7.640321E-14    5.526239E-12    1.384422E-09    2.173767E-07    2.543706E-05
         2.009307E-03    9.346650E-02     2.06160         16.1161         47.1026         66.6608         47.1026         16.1161         2.06160        9.346650E-02
         2.009307E-03    2.543706E-05    2.173767E-07    1.384421E-09    5.526235E-12   -7.640206E-14   -4.005168E-15   -1.075369E-16   -4.067486E-18   -1.405174E-19
        -4.238907E-21
  16    -3.094005E-20   -8.339705E-19   -1.900647E-17   -6.551674E-16   -1.720803E-14    2.946540E-14    8.607354E-11    1.668230E-08    2.480904E-06    2.661447E-04
         1.833301E-02    0.675083         9.56845         39.2881         66.6608         82.0065         66.6608         39.2881         9.56845        0.675083    
         1.833301E-02    2.661447E-04    2.480904E-06    1.668230E-08    8.607355E-11    2.946542E-14   -1.720803E-14   -6.551674E-16   -1.900647E-17   -8.339705E-19
        -3.094005E-20
  17    -4.238921E-21   -1.405179E-19   -4.067497E-18   -1.075372E-16   -4.005177E-15   -7.640220E-14    5.526236E-12    1.384422E-09    2.173767E-07    2.543706E-05
         2.009307E-03    9.346650E-02     2.06160         16.1161         47.1026         66.6608         47.1026         16.1161         2.06160        9.346650E-02
         2.009307E-03    2.543706E-05    2.173767E-07    1.384422E-09    5.526239E-12   -7.640320E-14   -4.005235E-15   -1.075390E-16   -4.067586E-18   -1.405214E-19
        -4.239039E-21
  18    -4.279239E-22   -1.630549E-20   -5.392933E-19   -1.437969E-17   -4.498878E-16   -1.545223E-14   -9.860185E-14    4.588610E-11    8.154249E-09    1.031005E-06
         9.261668E-05    5.333000E-03    0.171505         2.58353         16.1161         39.2881         16.1161         2.58353        0.171505        5.333000E-03
         9.261668E-05    1.031005E-06    8.154249E-09    4.588617E-11   -9.860655E-14   -1.545275E-14   -4.499092E-16   -1.438070E-17   -5.393425E-19   -1.630726E-20
        -4.279785E-22
  19    -2.949402E-23   -1.228623E-21   -4.411284E-20   -1.282415E-18   -3.203118E-17   -1.259316E-15   -3.834262E-14    2.696709E-13    1.726012E-10    2.420277E-08
         2.424496E-06    1.665155E-04    7.136584E-03    0.171505         2.06160         9.56845         2.06160        0.171505        7.136584E-03    1.665155E-04
         2.424495E-06    2.420278E-08    1.726014E-10    2.696566E-13   -3.834418E-14   -1.259429E-15   -3.203643E-17   -1.282732E-18   -4.412626E-20   -1.229065E-21
        -2.950651E-23
  20    -1.432775E-24   -6.661263E-23   -2.712046E-21   -9.151409E-20   -2.515469E-18   -6.486324E-17   -2.565021E-15   -6.717170E-14    1.354973E-12    3.645175E-10
         4.068564E-08    3.185712E-06    1.665155E-04    5.333000E-03    9.346650E-02    0.675083        9.346650E-02    5.333000E-03    1.665155E-04    3.185712E-06
         4.068565E-08    3.645174E-10    1.354925E-12   -6.717022E-14   -2.565294E-15   -6.488656E-17   -2.517069E-18   -9.158697E-20   -2.714563E-21   -6.668410E-23
        -1.434561E-24
  21    -4.672981E-26   -2.499983E-24   -1.181264E-22   -4.708975E-21   -1.539069E-19   -4.140764E-18   -1.069044E-16   -4.001589E-15   -8.935373E-14    2.500559E-12
         4.645442E-10    4.068564E-08    2.424496E-06    9.261668E-05    2.009307E-03    1.833301E-02    2.009307E-03    9.261668E-05    2.424495E-06    4.068565E-08
         4.645434E-10    2.500471E-12   -8.934576E-14   -4.002203E-15   -1.069825E-16   -4.146494E-18   -1.541796E-19   -4.718687E-21   -1.184055E-22   -2.506768E-24
        -4.687699E-26
  22    -1.048591E-27   -6.635138E-26   -3.701045E-24   -1.754411E-22   -6.889538E-21   -2.195107E-19   -5.753175E-18   -1.436694E-16   -4.959915E-15   -9.730818E-14
         2.500562E-12    3.645177E-10    2.420277E-08    1.031005E-06    2.543706E-05    2.661447E-04    2.543706E-05    1.031005E-06    2.420278E-08    3.645174E-10
         2.500471E-12   -9.729410E-14   -4.960885E-15   -1.438371E-16   -5.766739E-18   -2.201970E-19   -6.915030E-21   -1.761904E-22   -3.719291E-24   -6.673250E-26
        -1.055709E-27
  23    -1.643960E-29   -1.268353E-27   -8.510752E-26   -4.839384E-24   -2.286731E-22   -8.791238E-21   -2.706334E-19   -6.778815E-18   -1.584701E-16   -4.959888E-15
        -8.935656E-14    1.354981E-12    1.726012E-10    8.154248E-09    2.173767E-07    2.480904E-06    2.173767E-07    8.154249E-09    1.726014E-10    1.354925E-12
        -8.934576E-14   -4.960885E-15   -1.586942E-16   -6.800047E-18   -2.718255E-19   -8.838802E-21   -2.301355E-22   -4.875712E-24   -8.586345E-26   -1.281877E-27
        -1.665468E-29
  24    -1.763978E-31   -1.741148E-29   -1.446391E-27   -1.002383E-25   -5.735585E-24   -2.667613E-22   -9.910028E-21   -2.900561E-19   -6.777903E-18   -1.436527E-16
        -4.001548E-15   -6.717354E-14    2.696733E-13    4.588609E-11    1.384421E-09    1.668230E-08    1.384422E-09    4.588617E-11    2.696566E-13   -6.717022E-14
        -4.002203E-15   -1.438371E-16   -6.800047E-18   -2.915202E-19   -9.975437E-21   -2.689315E-22   -5.791976E-24   -1.014320E-25   -1.467558E-27   -1.773237E-29
        -1.806673E-31
  25    -1.167870E-33   -1.651935E-31   -1.795894E-29   -1.563431E-27   -1.100262E-25   -6.229750E-24   -2.805883E-22   -9.907884E-21   -2.705430E-19   -5.751391E-18
        -1.068895E-16   -2.564990E-15   -3.834263E-14   -9.860128E-14    5.526235E-12    8.607355E-11    5.526239E-12   -9.860655E-14   -3.834418E-14   -2.565294E-15
        -1.069825E-16   -5.766739E-18   -2.718255E-19   -9.975437E-21   -2.831037E-22   -6.300315E-24   -1.115865E-25   -1.591475E-27   -1.837772E-29   -1.704742E-31
        -1.225235E-33
  26    -2.510257E-36   -9.417121E-34   -1.555638E-31   -1.813241E-29   -1.620059E-27   -1.133802E-25   -6.227939E-24   -2.666335E-22   -8.786413E-21   -2.194044E-19
        -4.139534E-18   -6.485747E-17   -1.259296E-15   -1.545216E-14   -7.640206E-14    2.946542E-14   -7.640320E-14   -1.545275E-14   -1.259429E-15   -6.488656E-17
        -4.146494E-18   -2.201970E-19   -8.838802E-21   -2.689315E-22   -6.300315E-24   -1.151073E-25   -1.652419E-27   -1.861991E-29   -1.615690E-31   -1.002954E-33
        -3.034327E-36
  27     3.348599E-38   -9.249696E-37   -7.989059E-34   -1.495375E-31   -1.815228E-29   -1.619407E-27   -1.099542E-25   -5.731101E-24   -2.284952E-22   -6.885123E-21
        -1.538440E-19   -2.515032E-18   -3.202990E-17   -4.498842E-16   -4.005168E-15   -1.720803E-14   -4.005235E-15   -4.499092E-16   -3.203643E-17   -2.517069E-18
        -1.541796E-19   -6.915030E-21   -2.301355E-22   -5.791976E-24   -1.115865E-25   -1.652419E-27   -1.866975E-29   -1.559317E-31   -8.618560E-34   -1.422119E-36
         3.031222E-38
  28     3.789685E-40    3.557534E-38   -1.830534E-37   -7.485216E-34   -1.494376E-31   -1.811482E-29   -1.561682E-27   -1.001240E-25   -4.834389E-24   -1.753003E-22
        -4.706616E-21   -9.149329E-20   -1.282330E-18   -1.437950E-17   -1.075369E-16   -6.551674E-16   -1.075390E-16   -1.438070E-17   -1.282732E-18   -9.158697E-20
        -4.718687E-21   -1.761904E-22   -4.875712E-24   -1.014320E-25   -1.591475E-27   -1.861991E-29   -1.559317E-31   -8.123149E-34   -6.612808E-37    3.285620E-38
         3.672743E-40
  29     1.779860E-42    3.338966E-40    3.583556E-38   -1.774967E-37   -7.971734E-34   -1.552736E-31   -1.792758E-29   -1.444097E-27   -8.499420E-26   -3.697403E-24
        -1.180557E-22   -2.711304E-21   -4.410908E-20   -5.392834E-19   -4.067486E-18   -1.900647E-17   -4.067586E-18   -5.393425E-19   -4.412626E-20   -2.714563E-21
        -1.184055E-22   -3.719291E-24   -8.586345E-26   -1.467558E-27   -1.837772E-29   -1.615690E-31   -8.618560E-34   -6.612808E-37    3.327721E-38    3.248116E-40
         1.759453E-42
  30     3.694667E-45    1.478746E-42    3.339692E-40    3.562919E-38   -9.070507E-37   -9.382068E-34   -1.647489E-31   -1.737363E-29   -1.266195E-27   -6.627173E-26
        -2.498202E-24   -6.659092E-23   -1.228495E-21   -1.630512E-20   -1.405174E-19   -8.339705E-19   -1.405214E-19   -1.630726E-20   -1.229065E-21   -6.668410E-23
        -2.506768E-24   -6.673250E-26   -1.281877E-27   -1.773237E-29   -1.704742E-31   -1.002954E-33   -1.422119E-36    3.285620E-38    3.248116E-40    1.464594E-42
         3.693840E-45
  31      0.00000        3.694749E-45    1.780154E-42    3.792658E-40    3.361843E-38   -2.477108E-36   -1.162671E-33   -1.758648E-31   -1.640373E-29   -1.047050E-27
        -4.669007E-26   -1.432217E-24   -2.949026E-23   -4.279120E-22   -4.238907E-21   -3.094005E-20   -4.239039E-21   -4.279785E-22   -2.950651E-23   -1.434561E-24
        -4.687699E-26   -1.055709E-27   -1.665468E-29   -1.806673E-31   -1.225235E-33   -3.034327E-36    3.031222E-38    3.672743E-40    1.759453E-42    3.693840E-45
          0.00000    

 CONCENTRATION WILL BE SAVED ON UNIT 1030 AT END OF TIME STEP   14, STRESS PERIOD    2


  MASS BUDGET FOR ENTIRE MODEL AT END OF TIME STEP   14, STRESS PERIOD   2
  ---------------------------------------------------------------------------------------------------

     CUMULATIVE MASS      M       RATES FOR THIS TIME STEP      M/T          PACKAGE NAME    
     ------------------                 ------------------------                     ----------------

           IN:                                      IN:
           ---                                      ---
     STORAGE-AQUEOUS =  2823226942.8233       STORAGE-AQUEOUS =     7090538.7219     MST                              
                 WEL =  7884000000.0000                   WEL =           0.0000     SSM_WEL-1                        
                 CHD =           0.0000                   CHD =           0.0000     SSM_CHD-1                        

            TOTAL IN = 10707226942.8233              TOTAL IN =     7090538.7219

          OUT:                                     OUT:
          ----                                     ----
     STORAGE-AQUEOUS =  7887815763.4917       STORAGE-AQUEOUS =        5177.4473     MST                              
                 WEL =  2819411179.3316                   WEL =     7085361.2746     SSM_WEL-1                        
                 CHD =       7.5562E-18                   CHD =           0.0000     SSM_CHD-1                        

           TOTAL OUT = 10707226942.8233             TOTAL OUT =     7090538.7219

            IN - OUT =      -1.9073E-06              IN - OUT =       3.5390E-08

 PERCENT DISCREPANCY =          -0.00     PERCENT DISCREPANCY =           0.00




         TIME SUMMARY AT END OF TIME STEP   14 IN STRESS PERIOD    2
                    SECONDS     MINUTES      HOURS       DAYS        YEARS
                    -----------------------------------------------------------
   TIME STEP LENGTH 2.16991E+06  36165.      602.75      25.115     6.87602E-02
 STRESS PERIOD TIME 3.03787E+07 5.06312E+05  8438.5      351.61     0.96264    
         TOTAL TIME 1.09219E+08 1.82031E+06  30339.      1264.1      3.4609    


end timestep


start timestep kper="2" kstp="15" mode="normal"

 UBDSV1 SAVING  STORAGE-AQUEOUS ON UNIT   1029 AT TIME STEP     15, STRESS PERIOD      2
 UBDSV1 SAVING     FLOW-JA-FACE ON UNIT   1029 AT TIME STEP     15, STRESS PERIOD      2
 UBDSV06 SAVING  SOURCE-SINK MIX IN MODEL GWT_P06-MF6      PACKAGE GWT_P06-MF6     CONNECTED TO MODEL GWT_P06-MF6      PACKAGE SSM              ON UNIT   1029 AT TIME STEP     15, STRESS PERIOD      2
1
  CONCENTRATION IN LAYER   1 AT END OF TIME STEP  15 IN STRESS PERIOD    2
  ---------------------------------------------------------------------------

                1               2               3               4               5               6               7               8               9              10
               11              12              13              14              15              16              17              18              19              20
               21              22              23              24              25              26              27              28              29              30
               31
 ................................................................................................................................................................................................................................................................................................................................................................................................................................................................................................................
   1      0.00000        3.909953E-45    1.840041E-42    3.768200E-40    2.900457E-38   -3.683148E-36   -1.340465E-33   -1.932091E-31   -1.758237E-29   -1.103690E-27
        -4.860824E-26   -1.477558E-24   -3.025012E-23   -4.370683E-22   -4.311485E-21   -3.122293E-20   -4.311366E-21   -4.370129E-22   -3.023742E-23   -1.475738E-24
        -4.845763E-26   -1.096364E-27   -1.735961E-29   -1.887551E-31   -1.280146E-33   -3.127219E-36    3.240695E-38    3.895515E-40    1.863063E-42    3.913321E-45
          0.00000    
   2     3.909953E-45    1.522186E-42    3.327855E-40    3.224975E-38   -1.882128E-36   -1.097157E-33   -1.820987E-31   -1.871396E-29   -1.340911E-27   -6.928225E-26
        -2.585076E-24   -6.836647E-23   -1.254645E-21   -1.658706E-20   -1.424185E-19   -8.393763E-19   -1.424149E-19   -1.658527E-20   -1.254198E-21   -6.829390E-23
        -2.578158E-24   -6.889174E-26   -1.326977E-27   -1.838141E-29   -1.765929E-31   -1.032903E-33   -1.356967E-36    3.514608E-38    3.425935E-40    1.538078E-42
         3.913426E-45
   3     1.840041E-42    3.327855E-40    3.286058E-38   -1.030798E-36   -9.423008E-34   -1.723004E-31   -1.937399E-29   -1.534586E-27   -8.916894E-26   -3.838201E-24
        -1.214730E-22   -2.770253E-21   -4.485783E-20   -5.463592E-19   -4.114938E-18   -1.917361E-17   -4.114849E-18   -5.463098E-19   -4.484429E-20   -2.767707E-21
        -1.211895E-22   -3.819580E-24   -8.839361E-26   -1.512763E-27   -1.894005E-29   -1.660461E-31   -8.763944E-34   -5.271034E-37    3.557801E-38    3.426738E-40
         1.863406E-42
   4     3.768200E-40    3.224975E-38   -1.030798E-36   -8.878615E-34   -1.660844E-31   -1.960734E-29   -1.662951E-27   -1.053075E-25   -5.032242E-24   -1.808278E-22
        -4.817136E-21   -9.307612E-20   -1.300880E-18   -1.454217E-17   -1.090662E-16   -6.575613E-16   -1.090644E-16   -1.454115E-17   -1.300562E-18   -9.300270E-20
        -4.807310E-21   -1.800662E-22   -4.995136E-24   -1.040824E-25   -1.634036E-27   -1.910240E-29   -1.594306E-31   -8.211295E-34   -5.211882E-37    3.520434E-38
         3.898829E-40
   5     2.900457E-38   -1.882128E-36   -9.423008E-34   -1.660844E-31   -1.965060E-29   -1.725703E-27   -1.158046E-25   -5.977000E-24   -2.362171E-22   -7.061665E-21
        -1.567670E-19   -2.555807E-18   -3.266826E-17   -4.561532E-16   -4.007978E-15   -1.700101E-14   -4.007919E-15   -4.561318E-16   -3.266299E-17   -2.554203E-18
        -1.564923E-19   -7.035861E-21   -2.347296E-22   -5.919370E-24   -1.142030E-25   -1.692339E-27   -1.911472E-29   -1.593261E-31   -8.745665E-34   -1.337834E-36
         3.255116E-38
   6    -3.683148E-36   -1.097157E-33   -1.723004E-31   -1.960734E-29   -1.725703E-27   -1.194381E-25   -6.500552E-24   -2.760294E-22   -9.027909E-21   -2.240206E-19
        -4.216623E-18   -6.636221E-17   -1.275428E-15   -1.532050E-14   -7.066760E-14    1.025219E-13   -7.066661E-14   -1.531998E-14   -1.275315E-15   -6.633899E-17
        -4.210881E-18   -2.233291E-19   -8.979739E-21   -2.738210E-22   -6.428417E-24   -1.176649E-25   -1.691664E-27   -1.908410E-29   -1.657422E-31   -1.029196E-33
        -3.091675E-36
   7    -1.340465E-33   -1.820987E-31   -1.937399E-29   -1.662951E-27   -1.158046E-25   -6.500552E-24   -2.905675E-22   -1.018959E-20   -2.766439E-19   -5.869931E-18
        -1.095204E-16   -2.592471E-15   -3.762377E-14   -4.993696E-14    6.782336E-12    9.989235E-11    6.782333E-12   -4.993235E-14   -3.762221E-14   -2.592202E-15
        -1.094429E-16   -5.856341E-18   -2.754425E-19   -1.012333E-20   -2.880073E-22   -6.426562E-24   -1.141288E-25   -1.632227E-27   -1.890742E-29   -1.761268E-31
        -1.274639E-33
   8    -1.932091E-31   -1.871396E-29   -1.534586E-27   -1.053075E-25   -5.977000E-24   -2.760294E-22   -1.018959E-20   -2.967220E-19   -6.924735E-18   -1.472682E-16
        -4.034833E-15   -6.463862E-14    4.727287E-13    5.432956E-11    1.591573E-09    1.883907E-08    1.591573E-09    5.432949E-11    4.727425E-13   -6.464003E-14
        -4.034234E-15   -1.471023E-16   -6.903463E-18   -2.952463E-19   -1.012115E-20   -2.736908E-22   -5.914780E-24   -1.039648E-25   -1.510392E-27   -1.834203E-29
        -1.881963E-31
   9    -1.758237E-29   -1.340911E-27   -8.916894E-26   -5.032242E-24   -2.362171E-22   -9.027909E-21   -2.766439E-19   -6.924735E-18   -1.624753E-16   -4.992968E-15
        -8.428218E-14    1.853181E-12    2.021105E-10    9.312023E-09    2.433571E-07    2.721226E-06    2.433571E-07    9.312022E-09    2.021103E-10    1.853229E-12
        -8.428993E-14   -4.992027E-15   -1.622536E-16   -6.902549E-18   -2.753513E-19   -8.974849E-21   -2.345485E-22   -4.990027E-24   -8.827716E-26   -1.324748E-27
        -1.732234E-29
  10    -1.103690E-27   -6.928225E-26   -3.838201E-24   -1.808278E-22   -7.061665E-21   -2.240206E-19   -5.869931E-18   -1.472682E-16   -4.992968E-15   -9.096828E-14
         3.270722E-12    4.247218E-10    2.749565E-08    1.144827E-06    2.760328E-05    2.824569E-04    2.760328E-05    1.144827E-06    2.749565E-08    4.247219E-10
         3.270809E-12   -9.098203E-14   -4.992002E-15   -1.470858E-16   -5.854554E-18   -2.232220E-19   -7.031390E-21   -1.799230E-22   -3.815860E-24   -6.881003E-26
        -1.094776E-27
  11    -4.860824E-26   -2.585076E-24   -1.214730E-22   -4.817136E-21   -1.567670E-19   -4.216623E-18   -1.095204E-16   -4.034833E-15   -8.428218E-14    3.270722E-12
         5.404533E-10    4.609187E-08    2.677416E-06    9.961597E-05    2.107200E-03    1.878202E-02    2.107200E-03    9.961597E-05    2.677417E-06    4.609186E-08
         5.404540E-10    3.270813E-12   -8.429271E-14   -4.034197E-15   -1.094283E-16   -4.209649E-18   -1.564290E-19   -4.804923E-21   -1.211176E-22   -2.576342E-24
        -4.841694E-26
  12    -1.477558E-24   -6.836647E-23   -2.770253E-21   -9.307612E-20   -2.555807E-18   -6.636221E-17   -2.592471E-15   -6.463862E-14    1.853181E-12    4.247218E-10
         4.609187E-08    3.511419E-06    1.782270E-04    5.542642E-03    9.458740E-02    0.668054        9.458740E-02    5.542642E-03    1.782270E-04    3.511419E-06
         4.609186E-08    4.247221E-10    1.853236E-12   -6.464184E-14   -2.592172E-15   -6.633327E-17   -2.553765E-18   -9.298176E-20   -2.766957E-21   -6.827187E-23
        -1.475170E-24
  13    -3.025012E-23   -1.254645E-21   -4.485783E-20   -1.300880E-18   -3.266826E-17   -1.275428E-15   -3.762377E-14    4.727287E-13    2.021105E-10    2.749565E-08
         2.677416E-06    1.782270E-04    7.393399E-03    0.172186         2.01983         9.24707         2.01983        0.172186        7.393399E-03    1.782270E-04
         2.677417E-06    2.749565E-08    2.021104E-10    4.727449E-13   -3.762221E-14   -1.275295E-15   -3.266171E-17   -1.300476E-18   -4.484050E-20   -1.254069E-21
        -3.023362E-23
  14    -4.370683E-22   -1.658706E-20   -5.463592E-19   -1.454217E-17   -4.561532E-16   -1.532050E-14   -4.993696E-14    5.432956E-11    9.312023E-09    1.144827E-06
         9.961597E-05    5.542642E-03    0.172186         2.51935         15.5055         37.7861         15.5055         2.51935        0.172186        5.542642E-03
         9.961597E-05    1.144827E-06    9.312022E-09    5.432948E-11   -4.993178E-14   -1.531991E-14   -4.561281E-16   -1.454096E-17   -5.462999E-19   -1.658489E-20
        -4.370009E-22
  15    -4.311485E-21   -1.424185E-19   -4.114938E-18   -1.090662E-16   -4.007978E-15   -7.066760E-14    6.782336E-12    1.591573E-09    2.433571E-07    2.760328E-05
         2.107200E-03    9.458740E-02     2.01983         15.5055         45.4174         64.4408         45.4174         15.5055         2.01983        9.458740E-02
         2.107200E-03    2.760328E-05    2.433571E-07    1.591573E-09    6.782332E-12   -7.066647E-14   -4.007911E-15   -1.090642E-16   -4.114838E-18   -1.424145E-19
        -4.311352E-21
  16    -3.122293E-20   -8.393763E-19   -1.917361E-17   -6.575613E-16   -1.700101E-14    1.025219E-13    9.989235E-11    1.883907E-08    2.721226E-06    2.824569E-04
         1.878202E-02    0.668054         9.24707         37.7861         64.4408         79.8469         64.4408         37.7861         9.24707        0.668054    
         1.878202E-02    2.824569E-04    2.721226E-06    1.883907E-08    9.989235E-11    1.025219E-13   -1.700101E-14   -6.575613E-16   -1.917361E-17   -8.393764E-19
        -3.122293E-20
  17    -4.311366E-21   -1.424149E-19   -4.114849E-18   -1.090644E-16   -4.007919E-15   -7.066661E-14    6.782333E-12    1.591573E-09    2.433571E-07    2.760328E-05
         2.107200E-03    9.458740E-02     2.01983         15.5055         45.4174         64.4408         45.4174         15.5055         2.01983        9.458740E-02
         2.107200E-03    2.760328E-05    2.433571E-07    1.591573E-09    6.782336E-12   -7.066760E-14   -4.007978E-15   -1.090662E-16   -4.114938E-18   -1.424185E-19
        -4.311485E-21
  18    -4.370129E-22   -1.658527E-20   -5.463098E-19   -1.454115E-17   -4.561318E-16   -1.531998E-14   -4.993235E-14    5.432949E-11    9.312022E-09    1.144827E-06
         9.961597E-05    5.542642E-03    0.172186         2.51935         15.5055         37.7861         15.5055         2.51935        0.172186        5.542642E-03
         9.961597E-05    1.144827E-06    9.312023E-09    5.432956E-11   -4.993695E-14   -1.532050E-14   -4.561532E-16   -1.454217E-17   -5.463592E-19   -1.658706E-20
        -4.370683E-22
  19    -3.023742E-23   -1.254198E-21   -4.484429E-20   -1.300562E-18   -3.266299E-17   -1.275315E-15   -3.762221E-14    4.727425E-13    2.021103E-10    2.749565E-08
         2.677417E-06    1.782270E-04    7.393399E-03    0.172186         2.01983         9.24707         2.01983        0.172186        7.393399E-03    1.782270E-04
         2.677416E-06    2.749565E-08    2.021105E-10    4.727287E-13   -3.762377E-14   -1.275428E-15   -3.266826E-17   -1.300880E-18   -4.485783E-20   -1.254645E-21
        -3.025012E-23
  20    -1.475738E-24   -6.829390E-23   -2.767707E-21   -9.300270E-20   -2.554203E-18   -6.633899E-17   -2.592202E-15   -6.464003E-14    1.853229E-12    4.247219E-10
         4.609186E-08    3.511419E-06    1.782270E-04    5.542642E-03    9.458740E-02    0.668054        9.458740E-02    5.542642E-03    1.782270E-04    3.511419E-06
         4.609187E-08    4.247218E-10    1.853181E-12   -6.463862E-14   -2.592471E-15   -6.636221E-17   -2.555807E-18   -9.307612E-20   -2.770253E-21   -6.836647E-23
        -1.477558E-24
  21    -4.845763E-26   -2.578158E-24   -1.211895E-22   -4.807310E-21   -1.564923E-19   -4.210881E-18   -1.094429E-16   -4.034234E-15   -8.428993E-14    3.270809E-12
         5.404540E-10    4.609186E-08    2.677417E-06    9.961597E-05    2.107200E-03    1.878202E-02    2.107200E-03    9.961597E-05    2.677416E-06    4.609187E-08
         5.404533E-10    3.270722E-12   -8.428218E-14   -4.034833E-15   -1.095204E-16   -4.216623E-18   -1.567670E-19   -4.817136E-21   -1.214730E-22   -2.585076E-24
        -4.860824E-26
  22    -1.096364E-27   -6.889174E-26   -3.819580E-24   -1.800662E-22   -7.035861E-21   -2.233291E-19   -5.856341E-18   -1.471023E-16   -4.992027E-15   -9.098203E-14
         3.270813E-12    4.247221E-10    2.749565E-08    1.144827E-06    2.760328E-05    2.824569E-04    2.760328E-05    1.144827E-06    2.749565E-08    4.247218E-10
         3.270722E-12   -9.096829E-14   -4.992968E-15   -1.472682E-16   -5.869931E-18   -2.240206E-19   -7.061665E-21   -1.808278E-22   -3.838201E-24   -6.928225E-26
        -1.103690E-27
  23    -1.735961E-29   -1.326977E-27   -8.839361E-26   -4.995136E-24   -2.347296E-22   -8.979739E-21   -2.754425E-19   -6.903463E-18   -1.622536E-16   -4.992002E-15
        -8.429271E-14    1.853236E-12    2.021104E-10    9.312022E-09    2.433571E-07    2.721226E-06    2.433571E-07    9.312023E-09    2.021105E-10    1.853181E-12
        -8.428218E-14   -4.992968E-15   -1.624753E-16   -6.924735E-18   -2.766439E-19   -9.027909E-21   -2.362171E-22   -5.032242E-24   -8.916894E-26   -1.340911E-27
        -1.758237E-29
  24    -1.887551E-31   -1.838141E-29   -1.512763E-27   -1.040824E-25   -5.919370E-24   -2.738210E-22   -1.012333E-20   -2.952463E-19   -6.902549E-18   -1.470858E-16
        -4.034197E-15   -6.464184E-14    4.727449E-13    5.432948E-11    1.591573E-09    1.883907E-08    1.591573E-09    5.432956E-11    4.727287E-13   -6.463862E-14
        -4.034833E-15   -1.472682E-16   -6.924735E-18   -2.967220E-19   -1.018959E-20   -2.760294E-22   -5.977000E-24   -1.053075E-25   -1.534586E-27   -1.871396E-29
        -1.932091E-31
  25    -1.280146E-33   -1.765929E-31   -1.894005E-29   -1.634036E-27   -1.142030E-25   -6.428417E-24   -2.880073E-22   -1.012115E-20   -2.753513E-19   -5.854554E-18
        -1.094283E-16   -2.592172E-15   -3.762221E-14   -4.993178E-14    6.782332E-12    9.989235E-11    6.782336E-12   -4.993695E-14   -3.762377E-14   -2.592471E-15
        -1.095204E-16   -5.869931E-18   -2.766439E-19   -1.018959E-20   -2.905675E-22   -6.500552E-24   -1.158046E-25   -1.662951E-27   -1.937399E-29   -1.820987E-31
        -1.340465E-33
  26    -3.127219E-36   -1.032903E-33   -1.660461E-31   -1.910240E-29   -1.692339E-27   -1.176649E-25   -6.426562E-24   -2.736908E-22   -8.974849E-21   -2.232220E-19
        -4.209649E-18   -6.633327E-17   -1.275295E-15   -1.531991E-14   -7.066647E-14    1.025219E-13   -7.066760E-14   -1.532050E-14   -1.275428E-15   -6.636221E-17
        -4.216623E-18   -2.240206E-19   -9.027909E-21   -2.760294E-22   -6.500552E-24   -1.194381E-25   -1.725703E-27   -1.960734E-29   -1.723004E-31   -1.097157E-33
        -3.683148E-36
  27     3.240695E-38   -1.356967E-36   -8.763944E-34   -1.594306E-31   -1.911472E-29   -1.691664E-27   -1.141288E-25   -5.914780E-24   -2.345485E-22   -7.031390E-21
        -1.564290E-19   -2.553765E-18   -3.266171E-17   -4.561281E-16   -4.007911E-15   -1.700101E-14   -4.007978E-15   -4.561532E-16   -3.266826E-17   -2.555807E-18
        -1.567670E-19   -7.061665E-21   -2.362171E-22   -5.977000E-24   -1.158046E-25   -1.725703E-27   -1.965060E-29   -1.660844E-31   -9.423008E-34   -1.882128E-36
         2.900457E-38
  28     3.895515E-40    3.514608E-38   -5.271034E-37   -8.211295E-34   -1.593261E-31   -1.908410E-29   -1.632227E-27   -1.039648E-25   -4.990027E-24   -1.799230E-22
        -4.804923E-21   -9.298176E-20   -1.300476E-18   -1.454096E-17   -1.090642E-16   -6.575613E-16   -1.090662E-16   -1.454217E-17   -1.300880E-18   -9.307612E-20
        -4.817136E-21   -1.808278E-22   -5.032242E-24   -1.053075E-25   -1.662951E-27   -1.960734E-29   -1.660844E-31   -8.878615E-34   -1.030798E-36    3.224975E-38
         3.768200E-40
  29     1.863063E-42    3.425935E-40    3.557801E-38   -5.211882E-37   -8.745665E-34   -1.657422E-31   -1.890742E-29   -1.510392E-27   -8.827716E-26   -3.815860E-24
        -1.211176E-22   -2.766957E-21   -4.484050E-20   -5.462999E-19   -4.114838E-18   -1.917361E-17   -4.114938E-18   -5.463592E-19   -4.485783E-20   -2.770253E-21
        -1.214730E-22   -3.838201E-24   -8.916894E-26   -1.534586E-27   -1.937399E-29   -1.723004E-31   -9.423008E-34   -1.030798E-36    3.286058E-38    3.327855E-40
         1.840041E-42
  30     3.913321E-45    1.538078E-42    3.426738E-40    3.520434E-38   -1.337834E-36   -1.029196E-33   -1.761268E-31   -1.834203E-29   -1.324748E-27   -6.881003E-26
        -2.576342E-24   -6.827187E-23   -1.254069E-21   -1.658489E-20   -1.424145E-19   -8.393764E-19   -1.424185E-19   -1.658706E-20   -1.254645E-21   -6.836647E-23
        -2.585076E-24   -6.928225E-26   -1.340911E-27   -1.871396E-29   -1.820987E-31   -1.097157E-33   -1.882128E-36    3.224975E-38    3.327855E-40    1.522186E-42
         3.909953E-45
  31      0.00000        3.913426E-45    1.863406E-42    3.898829E-40    3.255116E-38   -3.091675E-36   -1.274639E-33   -1.881963E-31   -1.732234E-29   -1.094776E-27
        -4.841694E-26   -1.475170E-24   -3.023362E-23   -4.370009E-22   -4.311352E-21   -3.122293E-20   -4.311485E-21   -4.370683E-22   -3.025012E-23   -1.477558E-24
        -4.860824E-26   -1.103690E-27   -1.758237E-29   -1.932091E-31   -1.340465E-33   -3.683148E-36    2.900457E-38    3.768200E-40    1.840041E-42    3.909953E-45
          0.00000    

 CONCENTRATION WILL BE SAVED ON UNIT 1030 AT END OF TIME STEP   15, STRESS PERIOD    2


  MASS BUDGET FOR ENTIRE MODEL AT END OF TIME STEP   15, STRESS PERIOD   2
  ---------------------------------------------------------------------------------------------------

     CUMULATIVE MASS      M       RATES FOR THIS TIME STEP      M/T          PACKAGE NAME    
     ------------------                 ------------------------                     ----------------

           IN:                                      IN:
           ---                                      ---
     STORAGE-AQUEOUS =  2996600482.0176       STORAGE-AQUEOUS =     6903275.1679     MST                              
                 WEL =  7884000000.0000                   WEL =           0.0000     SSM_WEL-1                        
                 CHD =           0.0000                   CHD =           0.0000     SSM_CHD-1                        

            TOTAL IN = 10880600482.0176              TOTAL IN =     6903275.1679

          OUT:                                     OUT:
          ----                                     ----
     STORAGE-AQUEOUS =  7887928791.6492       STORAGE-AQUEOUS =        4500.4819     MST                              
                 WEL =  2992671690.3684                   WEL =     6898774.6860     SSM_WEL-1                        
                 CHD =       7.5562E-18                   CHD =           0.0000     SSM_CHD-1                        

           TOTAL OUT = 10880600482.0176             TOTAL OUT =     6903275.1679

            IN - OUT =      -1.9073E-06              IN - OUT =      -4.8429E-08

 PERCENT DISCREPANCY =          -0.00     PERCENT DISCREPANCY =          -0.00




         TIME SUMMARY AT END OF TIME STEP   15 IN STRESS PERIOD    2
                    SECONDS     MINUTES      HOURS       DAYS        YEARS
                    -----------------------------------------------------------
   TIME STEP LENGTH 2.16991E+06  36165.      602.75      25.115     6.87602E-02
 STRESS PERIOD TIME 3.25486E+07 5.42477E+05  9041.3      376.72      1.0314    
         TOTAL TIME 1.11389E+08 1.85648E+06  30941.      1289.2      3.5297    


end timestep


start timestep kper="2" kstp="16" mode="normal"

 UBDSV1 SAVING  STORAGE-AQUEOUS ON UNIT   1029 AT TIME STEP     16, STRESS PERIOD      2
 UBDSV1 SAVING     FLOW-JA-FACE ON UNIT   1029 AT TIME STEP     16, STRESS PERIOD      2
 UBDSV06 SAVING  SOURCE-SINK MIX IN MODEL GWT_P06-MF6      PACKAGE GWT_P06-MF6     CONNECTED TO MODEL GWT_P06-MF6      PACKAGE SSM              ON UNIT   1029 AT TIME STEP     16, STRESS PERIOD      2
1
  CONCENTRATION IN LAYER   1 AT END OF TIME STEP  16 IN STRESS PERIOD    2
  ---------------------------------------------------------------------------

                1               2               3               4               5               6               7               8               9              10
               11              12              13              14              15              16              17              18              19              20
               21              22              23              24              25              26              27              28              29              30
               31
 ................................................................................................................................................................................................................................................................................................................................................................................................................................................................................................................
   1      0.00000        4.135160E-45    1.922506E-42    3.859497E-40    2.743427E-38   -4.390267E-36   -1.463397E-33   -2.064291E-31   -1.855134E-29   -1.153419E-27
        -5.039070E-26   -1.521590E-24   -3.100834E-23   -4.463008E-22   -4.384720E-21   -3.150713E-20   -4.384599E-21   -4.462447E-22   -3.099545E-23   -1.519735E-24
        -5.023659E-26   -1.145881E-27   -1.832066E-29   -2.017839E-31   -1.400002E-33   -3.800905E-36    3.107845E-38    3.997888E-40    1.948359E-42    4.141374E-45
          0.00000    
   2     4.135160E-45    1.581096E-42    3.405711E-40    3.148296E-38   -2.383049E-36   -1.197516E-33   -1.943435E-31   -1.973931E-29   -1.402137E-27   -7.190948E-26
        -2.665288E-24   -7.008117E-23   -1.280616E-21   -1.687003E-20   -1.443334E-19   -8.448443E-19   -1.443298E-19   -1.686822E-20   -1.280164E-21   -7.000749E-23
        -2.658235E-24   -7.150940E-26   -1.387783E-27   -1.939475E-29   -1.886046E-31   -1.130124E-33   -1.828551E-36    3.456604E-38    3.511475E-40    1.598864E-42
         4.141507E-45
   3     1.922506E-42    3.405711E-40    3.231381E-38   -1.432875E-36   -1.027880E-33   -1.835928E-31   -2.041419E-29   -1.604103E-27   -9.257619E-26   -3.960056E-24
        -1.245994E-22   -2.826772E-21   -4.559865E-20   -5.534495E-19   -4.162955E-18   -1.934003E-17   -4.162865E-18   -5.533998E-19   -4.558500E-20   -2.824196E-21
        -1.243115E-22   -3.941055E-24   -9.178107E-26   -1.581610E-27   -1.996464E-29   -1.770806E-31   -9.588976E-34   -9.025455E-37    3.519869E-38    3.512362E-40
         1.948757E-42
   4     3.859497E-40    3.148296E-38   -1.432875E-36   -9.681799E-34   -1.767599E-31   -2.063772E-29   -1.737062E-27   -1.093023E-25   -5.192686E-24   -1.855558E-22
        -4.917069E-21   -9.458698E-20   -1.319365E-18   -1.470622E-17   -1.105732E-16   -6.597609E-16   -1.105714E-16   -1.470521E-17   -1.319045E-18   -9.451302E-20
        -4.907128E-21   -1.847818E-22   -5.154791E-24   -1.080451E-25   -1.707254E-27   -2.011481E-29   -1.698374E-31   -8.983918E-34   -8.962525E-37    3.462900E-38
         4.001572E-40
   5     2.743427E-38   -2.383049E-36   -1.027880E-33   -1.767599E-31   -2.067387E-29   -1.801671E-27   -1.201522E-25   -6.166662E-24   -2.424191E-22   -7.210601E-21
        -1.593968E-19   -2.595499E-18   -3.330423E-17   -4.622346E-16   -4.006068E-15   -1.673840E-14   -4.006010E-15   -4.622131E-16   -3.329896E-17   -2.593891E-18
        -1.591201E-19   -7.184483E-21   -2.409064E-22   -6.107774E-24   -1.185082E-25   -1.767276E-27   -2.011901E-29   -1.697280E-31   -9.569699E-34   -1.808136E-36
         3.123525E-38
   6    -4.390267E-36   -1.197516E-33   -1.835928E-31   -2.063772E-29   -1.801671E-27   -1.239014E-25   -6.705808E-24   -2.832689E-22   -9.220082E-21   -2.279123E-19
        -4.288564E-18   -6.783977E-17   -1.290491E-15   -1.521053E-14   -6.387198E-14    1.858771E-13   -6.387100E-14   -1.521001E-14   -1.290378E-15   -6.781664E-17
        -4.282811E-18   -2.272157E-19   -9.171303E-21   -2.810219E-22   -6.632078E-24   -1.220812E-25   -1.766579E-27   -2.009579E-29   -1.767624E-31   -1.126208E-33
        -3.762829E-36
   7    -1.463397E-33   -1.943435E-31   -2.041419E-29   -1.737062E-27   -1.201522E-25   -6.705808E-24   -2.981805E-22   -1.040727E-20   -2.815518E-19   -5.975781E-18
        -1.120482E-16   -2.616423E-15   -3.670851E-14    6.723225E-15    8.213046E-12    1.153799E-10    8.213043E-12    6.727703E-15   -3.670695E-14   -2.616158E-15
        -1.119714E-16   -5.962166E-18   -2.803411E-19   -1.034015E-20   -2.955752E-22   -6.630178E-24   -1.184319E-25   -1.705383E-27   -1.993069E-29   -1.881161E-31
        -1.394171E-33
   8    -2.064291E-31   -1.973931E-29   -1.604103E-27   -1.093023E-25   -6.166662E-24   -2.832689E-22   -1.040727E-20   -3.020218E-19   -7.052600E-18   -1.506711E-16
        -4.060442E-15   -6.151480E-14    7.065796E-13    6.389685E-11    1.821718E-09    2.118421E-08    1.821717E-09    6.389678E-11    7.065930E-13   -6.151614E-14
        -4.059859E-15   -1.505069E-16   -7.031290E-18   -3.005344E-19   -1.033795E-20   -2.808893E-22   -6.103076E-24   -1.079243E-25   -1.579158E-27   -1.935380E-29
        -2.011983E-31
   9    -1.855134E-29   -1.402137E-27   -9.257619E-26   -5.192686E-24   -2.424191E-22   -9.220082E-21   -2.815518E-19   -7.052600E-18   -1.662187E-16   -5.014823E-15
        -7.813442E-14    2.425578E-12    2.353826E-10    1.058762E-08    2.712938E-07    2.973471E-06    2.712938E-07    1.058762E-08    2.353824E-10    2.425624E-12
        -7.814196E-14   -5.013910E-15   -1.659994E-16   -7.030375E-18   -2.802492E-19   -9.166349E-21   -2.407220E-22   -5.149567E-24   -9.166144E-26   -1.385482E-27
        -1.828195E-29
  10    -1.153419E-27   -7.190948E-26   -3.960056E-24   -1.855558E-22   -7.210601E-21   -2.279123E-19   -5.975781E-18   -1.506711E-16   -5.014823E-15   -8.332035E-14
         4.154443E-12    4.923792E-10    3.110155E-08    1.266056E-06    2.984717E-05    2.988848E-04    2.984717E-05    1.266056E-06    3.110155E-08    4.923793E-10
         4.154528E-12   -8.333376E-14   -5.013888E-15   -1.504906E-16   -5.960377E-18   -2.271077E-19   -7.179956E-21   -1.846362E-22   -3.937256E-24   -7.142559E-26
        -1.144245E-27
  11    -5.039070E-26   -2.665288E-24   -1.245994E-22   -4.917069E-21   -1.593968E-19   -4.288564E-18   -1.120482E-16   -4.060442E-15   -7.813442E-14    4.154443E-12
         6.256628E-10    5.199306E-08    2.945079E-06    1.067848E-04    2.204086E-03    1.920732E-02    2.204086E-03    1.067848E-04    2.945079E-06    5.199305E-08
         6.256635E-10    4.154532E-12   -7.814470E-14   -4.059825E-15   -1.119570E-16   -4.281577E-18   -1.590564E-19   -4.904713E-21   -1.242385E-22   -2.656384E-24
        -5.019494E-26
  12    -1.521590E-24   -7.008117E-23   -2.826772E-21   -9.458698E-20   -2.595499E-18   -6.783977E-17   -2.616423E-15   -6.151480E-14    2.425578E-12    4.923792E-10
         5.199306E-08    3.855326E-06    1.901421E-04    5.746754E-03    9.558533E-02    0.660744        9.558533E-02    5.746754E-03    1.901421E-04    3.855326E-06
         5.199305E-08    4.923795E-10    2.425632E-12   -6.151792E-14   -2.616130E-15   -6.781098E-17   -2.593452E-18   -9.449195E-20   -2.823438E-21   -6.998515E-23
        -1.519158E-24
  13    -3.100834E-23   -1.280616E-21   -4.559865E-20   -1.319365E-18   -3.330423E-17   -1.290491E-15   -3.670851E-14    7.065796E-13    2.353826E-10    3.110155E-08
         2.945079E-06    1.901421E-04    7.641544E-03    0.172655         1.97831         8.93732         1.97831        0.172655        7.641544E-03    1.901421E-04
         2.945079E-06    3.110154E-08    2.353825E-10    7.065954E-13   -3.670696E-14   -1.290358E-15   -3.329768E-17   -1.318960E-18   -4.558118E-20   -1.280033E-21
        -3.099159E-23
  14    -4.463008E-22   -1.687003E-20   -5.534495E-19   -1.470622E-17   -4.622346E-16   -1.521053E-14    6.723225E-15    6.389685E-11    1.058762E-08    1.266056E-06
         1.067848E-04    5.746754E-03    0.172655         2.45628         14.9206         36.3417         14.9206         2.45628        0.172655        5.746754E-03
         1.067848E-04    1.266056E-06    1.058762E-08    6.389677E-11    6.728250E-15   -1.520995E-14   -4.622095E-16   -1.470502E-17   -5.533897E-19   -1.686784E-20
        -4.462325E-22
  15    -4.384720E-21   -1.443334E-19   -4.162955E-18   -1.105732E-16   -4.006068E-15   -6.387198E-14    8.213046E-12    1.821718E-09    2.712938E-07    2.984717E-05
         2.204086E-03    9.558533E-02     1.97831         14.9206         43.7881         62.2623         43.7881         14.9206         1.97831        9.558533E-02
         2.204086E-03    2.984717E-05    2.712938E-07    1.821717E-09    8.213042E-12   -6.387086E-14   -4.006002E-15   -1.105712E-16   -4.162855E-18   -1.443294E-19
        -4.384585E-21
  16    -3.150713E-20   -8.448443E-19   -1.934003E-17   -6.597609E-16   -1.673840E-14    1.858771E-13    1.153799E-10    2.118421E-08    2.973471E-06    2.988848E-04
         1.920732E-02    0.660744         8.93732         36.3417         62.2623         77.6527         62.2623         36.3417         8.93732        0.660744    
         1.920732E-02    2.988848E-04    2.973471E-06    2.118421E-08    1.153799E-10    1.858772E-13   -1.673840E-14   -6.597609E-16   -1.934003E-17   -8.448443E-19
        -3.150713E-20
  17    -4.384599E-21   -1.443298E-19   -4.162865E-18   -1.105714E-16   -4.006010E-15   -6.387100E-14    8.213043E-12    1.821717E-09    2.712938E-07    2.984717E-05
         2.204086E-03    9.558533E-02     1.97831         14.9206         43.7881         62.2623         43.7881         14.9206         1.97831        9.558533E-02
         2.204086E-03    2.984717E-05    2.712938E-07    1.821718E-09    8.213046E-12   -6.387197E-14   -4.006068E-15   -1.105732E-16   -4.162955E-18   -1.443334E-19
        -4.384720E-21
  18    -4.462447E-22   -1.686822E-20   -5.533998E-19   -1.470521E-17   -4.622131E-16   -1.521001E-14    6.727703E-15    6.389678E-11    1.058762E-08    1.266056E-06
         1.067848E-04    5.746754E-03    0.172655         2.45628         14.9206         36.3417         14.9206         2.45628        0.172655        5.746754E-03
         1.067848E-04    1.266056E-06    1.058762E-08    6.389685E-11    6.723233E-15   -1.521053E-14   -4.622346E-16   -1.470622E-17   -5.534495E-19   -1.687003E-20
        -4.463008E-22
  19    -3.099545E-23   -1.280164E-21   -4.558500E-20   -1.319045E-18   -3.329896E-17   -1.290378E-15   -3.670695E-14    7.065930E-13    2.353824E-10    3.110155E-08
         2.945079E-06    1.901421E-04    7.641544E-03    0.172655         1.97831         8.93732         1.97831        0.172655        7.641544E-03    1.901421E-04
         2.945079E-06    3.110155E-08    2.353826E-10    7.065796E-13   -3.670851E-14   -1.290491E-15   -3.330423E-17   -1.319365E-18   -4.559865E-20   -1.280616E-21
        -3.100834E-23
  20    -1.519735E-24   -7.000749E-23   -2.824196E-21   -9.451302E-20   -2.593891E-18   -6.781664E-17   -2.616158E-15   -6.151614E-14    2.425624E-12    4.923793E-10
         5.199305E-08    3.855326E-06    1.901421E-04    5.746754E-03    9.558533E-02    0.660744        9.558533E-02    5.746754E-03    1.901421E-04    3.855326E-06
         5.199306E-08    4.923792E-10    2.425578E-12   -6.151480E-14   -2.616423E-15   -6.783977E-17   -2.595499E-18   -9.458698E-20   -2.826772E-21   -7.008117E-23
        -1.521590E-24
  21    -5.023659E-26   -2.658235E-24   -1.243115E-22   -4.907128E-21   -1.591201E-19   -4.282811E-18   -1.119714E-16   -4.059859E-15   -7.814196E-14    4.154528E-12
         6.256635E-10    5.199305E-08    2.945079E-06    1.067848E-04    2.204086E-03    1.920732E-02    2.204086E-03    1.067848E-04    2.945079E-06    5.199306E-08
         6.256628E-10    4.154443E-12   -7.813442E-14   -4.060442E-15   -1.120482E-16   -4.288564E-18   -1.593968E-19   -4.917069E-21   -1.245994E-22   -2.665288E-24
        -5.039070E-26
  22    -1.145881E-27   -7.150940E-26   -3.941055E-24   -1.847818E-22   -7.184483E-21   -2.272157E-19   -5.962166E-18   -1.505069E-16   -5.013910E-15   -8.333376E-14
         4.154532E-12    4.923795E-10    3.110154E-08    1.266056E-06    2.984717E-05    2.988848E-04    2.984717E-05    1.266056E-06    3.110155E-08    4.923792E-10
         4.154443E-12   -8.332035E-14   -5.014823E-15   -1.506711E-16   -5.975781E-18   -2.279123E-19   -7.210601E-21   -1.855558E-22   -3.960056E-24   -7.190948E-26
        -1.153419E-27
  23    -1.832066E-29   -1.387783E-27   -9.178107E-26   -5.154791E-24   -2.409064E-22   -9.171303E-21   -2.803411E-19   -7.031290E-18   -1.659994E-16   -5.013888E-15
        -7.814470E-14    2.425632E-12    2.353825E-10    1.058762E-08    2.712938E-07    2.973471E-06    2.712938E-07    1.058762E-08    2.353826E-10    2.425578E-12
        -7.813442E-14   -5.014823E-15   -1.662187E-16   -7.052600E-18   -2.815518E-19   -9.220082E-21   -2.424191E-22   -5.192686E-24   -9.257619E-26   -1.402137E-27
        -1.855134E-29
  24    -2.017839E-31   -1.939475E-29   -1.581610E-27   -1.080451E-25   -6.107774E-24   -2.810219E-22   -1.034015E-20   -3.005344E-19   -7.030375E-18   -1.504906E-16
        -4.059825E-15   -6.151792E-14    7.065954E-13    6.389677E-11    1.821717E-09    2.118421E-08    1.821718E-09    6.389685E-11    7.065796E-13   -6.151480E-14
        -4.060442E-15   -1.506711E-16   -7.052600E-18   -3.020218E-19   -1.040727E-20   -2.832689E-22   -6.166662E-24   -1.093023E-25   -1.604103E-27   -1.973931E-29
        -2.064291E-31
  25    -1.400002E-33   -1.886046E-31   -1.996464E-29   -1.707254E-27   -1.185082E-25   -6.632078E-24   -2.955752E-22   -1.033795E-20   -2.802492E-19   -5.960377E-18
        -1.119570E-16   -2.616130E-15   -3.670696E-14    6.728250E-15    8.213042E-12    1.153799E-10    8.213046E-12    6.723233E-15   -3.670851E-14   -2.616423E-15
        -1.120482E-16   -5.975781E-18   -2.815518E-19   -1.040727E-20   -2.981805E-22   -6.705808E-24   -1.201522E-25   -1.737062E-27   -2.041419E-29   -1.943435E-31
        -1.463397E-33
  26    -3.800905E-36   -1.130124E-33   -1.770806E-31   -2.011481E-29   -1.767276E-27   -1.220812E-25   -6.630178E-24   -2.808893E-22   -9.166349E-21   -2.271077E-19
        -4.281577E-18   -6.781098E-17   -1.290358E-15   -1.520995E-14   -6.387086E-14    1.858772E-13   -6.387197E-14   -1.521053E-14   -1.290491E-15   -6.783977E-17
        -4.288564E-18   -2.279123E-19   -9.220082E-21   -2.832689E-22   -6.705808E-24   -1.239014E-25   -1.801671E-27   -2.063772E-29   -1.835928E-31   -1.197516E-33
        -4.390267E-36
  27     3.107845E-38   -1.828551E-36   -9.588976E-34   -1.698374E-31   -2.011901E-29   -1.766579E-27   -1.184319E-25   -6.103076E-24   -2.407220E-22   -7.179956E-21
        -1.590564E-19   -2.593452E-18   -3.329768E-17   -4.622095E-16   -4.006002E-15   -1.673840E-14   -4.006068E-15   -4.622346E-16   -3.330423E-17   -2.595499E-18
        -1.593968E-19   -7.210601E-21   -2.424191E-22   -6.166662E-24   -1.201522E-25   -1.801671E-27   -2.067387E-29   -1.767599E-31   -1.027880E-33   -2.383049E-36
         2.743427E-38
  28     3.997888E-40    3.456604E-38   -9.025455E-37   -8.983918E-34   -1.697280E-31   -2.009579E-29   -1.705383E-27   -1.079243E-25   -5.149567E-24   -1.846362E-22
        -4.904713E-21   -9.449195E-20   -1.318960E-18   -1.470502E-17   -1.105712E-16   -6.597609E-16   -1.105732E-16   -1.470622E-17   -1.319365E-18   -9.458698E-20
        -4.917069E-21   -1.855558E-22   -5.192686E-24   -1.093023E-25   -1.737062E-27   -2.063772E-29   -1.767599E-31   -9.681799E-34   -1.432875E-36    3.148296E-38
         3.859497E-40
  29     1.948359E-42    3.511475E-40    3.519869E-38   -8.962525E-37   -9.569699E-34   -1.767624E-31   -1.993069E-29   -1.579158E-27   -9.166144E-26   -3.937256E-24
        -1.242385E-22   -2.823438E-21   -4.558118E-20   -5.533897E-19   -4.162855E-18   -1.934003E-17   -4.162955E-18   -5.534495E-19   -4.559865E-20   -2.826772E-21
        -1.245994E-22   -3.960056E-24   -9.257619E-26   -1.604103E-27   -2.041419E-29   -1.835928E-31   -1.027880E-33   -1.432875E-36    3.231381E-38    3.405711E-40
         1.922506E-42
  30     4.141374E-45    1.598864E-42    3.512362E-40    3.462900E-38   -1.808136E-36   -1.126208E-33   -1.881161E-31   -1.935380E-29   -1.385482E-27   -7.142559E-26
        -2.656384E-24   -6.998515E-23   -1.280033E-21   -1.686784E-20   -1.443294E-19   -8.448443E-19   -1.443334E-19   -1.687003E-20   -1.280616E-21   -7.008117E-23
        -2.665288E-24   -7.190948E-26   -1.402137E-27   -1.973931E-29   -1.943435E-31   -1.197516E-33   -2.383049E-36    3.148296E-38    3.405711E-40    1.581096E-42
         4.135160E-45
  31      0.00000        4.141507E-45    1.948757E-42    4.001572E-40    3.123525E-38   -3.762829E-36   -1.394171E-33   -2.011983E-31   -1.828195E-29   -1.144245E-27
        -5.019494E-26   -1.519158E-24   -3.099159E-23   -4.462325E-22   -4.384585E-21   -3.150713E-20   -4.384720E-21   -4.463008E-22   -3.100834E-23   -1.521590E-24
        -5.039070E-26   -1.153419E-27   -1.855134E-29   -2.064291E-31   -1.463397E-33   -4.390267E-36    2.743427E-38    3.859497E-40    1.922506E-42    4.135160E-45
          0.00000    

 CONCENTRATION WILL BE SAVED ON UNIT 1030 AT END OF TIME STEP   16, STRESS PERIOD    2


  MASS BUDGET FOR ENTIRE MODEL AT END OF TIME STEP   16, STRESS PERIOD   2
  ---------------------------------------------------------------------------------------------------

     CUMULATIVE MASS      M       RATES FOR THIS TIME STEP      M/T          PACKAGE NAME    
     ------------------                 ------------------------                     ----------------

           IN:                                      IN:
           ---                                      ---
     STORAGE-AQUEOUS =  3165196435.2064       STORAGE-AQUEOUS =     6713044.3461     MST                              
                 WEL =  7884000000.0000                   WEL =           0.0000     SSM_WEL-1                        
                 CHD =           0.0000                   CHD =           0.0000     SSM_CHD-1                        

            TOTAL IN = 11049196435.2064              TOTAL IN =     6713044.3461

          OUT:                                     OUT:
          ----                                     ----
     STORAGE-AQUEOUS =  7888025618.2134       STORAGE-AQUEOUS =        3855.3773     MST                              
                 WEL =  3161170816.9931                   WEL =     6709188.9688     SSM_WEL-1                        
                 CHD =       7.5562E-18                   CHD =           0.0000     SSM_CHD-1                        

           TOTAL OUT = 11049196435.2064             TOTAL OUT =     6713044.3461

            IN - OUT =      -3.8147E-06              IN - OUT =      -6.7987E-08

 PERCENT DISCREPANCY =          -0.00     PERCENT DISCREPANCY =          -0.00




         TIME SUMMARY AT END OF TIME STEP   16 IN STRESS PERIOD    2
                    SECONDS     MINUTES      HOURS       DAYS        YEARS
                    -----------------------------------------------------------
   TIME STEP LENGTH 2.16991E+06  36165.      602.75      25.115     6.87602E-02
 STRESS PERIOD TIME 3.47185E+07 5.78642E+05  9644.0      401.83      1.1002    
         TOTAL TIME 1.13559E+08 1.89264E+06  31544.      1314.3      3.5985    


end timestep


start timestep kper="2" kstp="17" mode="normal"

 UBDSV1 SAVING  STORAGE-AQUEOUS ON UNIT   1029 AT TIME STEP     17, STRESS PERIOD      2
 UBDSV1 SAVING     FLOW-JA-FACE ON UNIT   1029 AT TIME STEP     17, STRESS PERIOD      2
 UBDSV06 SAVING  SOURCE-SINK MIX IN MODEL GWT_P06-MF6      PACKAGE GWT_P06-MF6     CONNECTED TO MODEL GWT_P06-MF6      PACKAGE SSM              ON UNIT   1029 AT TIME STEP     17, STRESS PERIOD      2
1
  CONCENTRATION IN LAYER   1 AT END OF TIME STEP  17 IN STRESS PERIOD    2
  ---------------------------------------------------------------------------

                1               2               3               4               5               6               7               8               9              10
               11              12              13              14              15              16              17              18              19              20
               21              22              23              24              25              26              27              28              29              30
               31
 ................................................................................................................................................................................................................................................................................................................................................................................................................................................................................................................
   1      0.00000        4.369655E-45    2.006757E-42    3.945864E-40    2.557875E-38   -5.159443E-36   -1.594437E-33   -2.203565E-31   -1.956305E-29   -1.204947E-27
        -5.222553E-26   -1.566675E-24   -3.178140E-23   -4.556774E-22   -4.458748E-21   -3.179268E-20   -4.458625E-21   -4.556205E-22   -3.176831E-23   -1.564785E-24
        -5.206786E-26   -1.197193E-27   -1.932424E-29   -2.155136E-31   -1.527836E-33   -4.535011E-36    2.947854E-38    4.096071E-40    2.035673E-42    4.379047E-45
          0.00000    
   2     4.369655E-45    1.641283E-42    3.481271E-40    3.054222E-38   -2.927458E-36   -1.304347E-33   -2.072352E-31   -2.081001E-29   -1.465619E-27   -7.461600E-26
        -2.747437E-24   -7.182865E-23   -1.306981E-21   -1.715621E-20   -1.462664E-19   -8.503733E-19   -1.462628E-19   -1.715439E-20   -1.306523E-21   -7.175385E-23
        -2.740248E-24   -7.420617E-26   -1.450835E-27   -2.045309E-29   -2.012550E-31   -1.233690E-33   -2.342246E-36    3.382208E-38    3.595197E-40    1.661071E-42
         4.379211E-45
   3     2.006757E-42    3.481271E-40    3.162592E-38   -1.869526E-36   -1.118853E-33   -1.954702E-31   -2.149990E-29   -1.676185E-27   -9.608762E-26   -4.084910E-24
        -1.277855E-22   -2.884130E-21   -4.634889E-20   -5.606144E-19   -4.211617E-18   -1.950559E-17   -4.211527E-18   -5.605644E-19   -4.633513E-20   -2.881524E-21
        -1.274931E-22   -4.065523E-24   -9.527231E-26   -1.653004E-27   -2.103426E-29   -1.886911E-31   -1.046672E-33   -1.311348E-36    3.468700E-38    3.596174E-40
         2.036132E-42
   4     3.945864E-40    3.054222E-38   -1.869526E-36   -1.053510E-33   -1.879803E-31   -2.171259E-29   -1.813887E-27   -1.134193E-25   -5.357118E-24   -1.903757E-22
        -5.018509E-21   -9.612013E-20   -1.338188E-18   -1.487271E-17   -1.120567E-16   -6.617287E-16   -1.120548E-16   -1.487169E-17   -1.337867E-18   -9.604563E-20
        -5.008454E-21   -1.895890E-22   -5.318421E-24   -1.121295E-25   -1.783162E-27   -2.117118E-29   -1.807797E-31   -9.805445E-34   -1.304657E-36    3.389005E-38
         4.100157E-40
   5     2.557875E-38   -2.927458E-36   -1.118853E-33   -1.879803E-31   -2.174107E-29   -1.880401E-27   -1.246323E-25   -6.361049E-24   -2.487434E-22   -7.361879E-21
        -1.620703E-19   -2.636138E-18   -3.394348E-17   -4.681192E-16   -3.998782E-15   -1.641278E-14   -3.998724E-15   -4.680976E-16   -3.393819E-17   -2.634525E-18
        -1.617916E-19   -7.335446E-21   -2.472050E-22   -6.300883E-24   -1.229451E-25   -1.844950E-27   -2.116665E-29   -1.806653E-31   -1.044640E-33   -2.320479E-36
         2.964880E-38
   6    -5.159443E-36   -1.304347E-33   -1.954702E-31   -2.171259E-29   -1.880401E-27   -1.285005E-25   -6.916174E-24   -2.906522E-22   -9.415381E-21   -2.318739E-19
        -4.362289E-18   -6.931607E-17   -1.304438E-15   -1.504971E-14   -5.587597E-14    2.807001E-13   -5.587500E-14   -1.504920E-14   -1.304326E-15   -6.929304E-17
        -4.356525E-18   -2.311722E-19   -9.365991E-21   -2.883663E-22   -6.840824E-24   -1.266322E-25   -1.844229E-27   -2.115139E-29   -1.883580E-31   -1.229553E-33
        -4.494260E-36
   7    -1.594437E-33   -2.072352E-31   -2.149990E-29   -1.813887E-27   -1.246323E-25   -6.916174E-24   -3.059452E-22   -1.062856E-20   -2.865516E-19   -6.084229E-18
        -1.145584E-16   -2.636584E-15   -3.555420E-14    7.198210E-14    9.836394E-12    1.326666E-10    9.836391E-12    7.198645E-14   -3.555264E-14   -2.636323E-15
        -1.144823E-16   -6.070590E-18   -2.853317E-19   -1.056058E-20   -3.032941E-22   -6.838879E-24   -1.228666E-25   -1.781228E-27   -2.099895E-29   -2.007433E-31
        -1.521667E-33
   8    -2.203565E-31   -2.081001E-29   -1.676185E-27   -1.134193E-25   -6.361049E-24   -2.906522E-22   -1.062856E-20   -3.074221E-19   -7.183556E-18   -1.540331E-16
        -4.077851E-15   -5.771510E-14    9.749174E-13    7.469341E-11    2.076367E-09    2.372487E-08    2.076366E-09    7.469334E-11    9.749303E-13   -5.771638E-14
        -4.077282E-15   -1.538706E-16   -7.162211E-18   -3.059231E-19   -1.055834E-20   -2.882312E-22   -6.296075E-24   -1.120052E-25   -1.650470E-27   -2.041051E-29
        -2.149001E-31
   9    -1.956305E-29   -1.465619E-27   -9.608762E-26   -5.357118E-24   -2.487434E-22   -9.415381E-21   -2.865516E-19   -7.183556E-18   -1.699097E-16   -5.024770E-15
        -7.075091E-14    3.080724E-12    2.727421E-10    1.198750E-08    3.012307E-07    3.237475E-06    3.012307E-07    1.198750E-08    2.727420E-10    3.080768E-12
        -7.075825E-14   -5.023884E-15   -1.696928E-16   -7.161294E-18   -2.852390E-19   -9.360971E-21   -2.470173E-22   -5.313079E-24   -9.514942E-26   -1.448459E-27
        -1.928404E-29
  10    -1.204947E-27   -7.461600E-26   -4.084910E-24   -1.903757E-22   -7.361879E-21   -2.318739E-19   -6.084229E-18   -1.540331E-16   -5.024770E-15   -7.416614E-14
         5.164554E-12    5.680976E-10    3.503498E-08    1.394749E-06    3.216547E-05    3.153977E-04    3.216547E-05    1.394749E-06    3.503498E-08    5.680977E-10
         5.164638E-12   -7.417924E-14   -5.023864E-15   -1.538546E-16   -6.068799E-18   -2.310635E-19   -7.330864E-21   -1.894410E-22   -4.061643E-24   -7.412022E-26
        -1.195507E-27
  11    -5.222553E-26   -2.747437E-24   -1.277855E-22   -5.018509E-21   -1.620703E-19   -4.362289E-18   -1.145584E-16   -4.077851E-15   -7.075091E-14    5.164554E-12
         7.209159E-10    5.840993E-08    3.227429E-06    1.141089E-04    2.299803E-03    1.960928E-02    2.299803E-03    1.141089E-04    3.227429E-06    5.840992E-08
         7.209165E-10    5.164641E-12   -7.076094E-14   -4.077251E-15   -1.144680E-16   -4.355290E-18   -1.617274E-19   -5.006011E-21   -1.274190E-22   -2.738361E-24
        -5.202524E-26
  12    -1.566675E-24   -7.182865E-23   -2.884130E-21   -9.612013E-20   -2.636138E-18   -6.931607E-17   -2.636584E-15   -5.771510E-14    3.080724E-12    5.680976E-10
         5.840993E-08    4.217287E-06    2.022344E-04    5.945075E-03    9.646529E-02    0.653183        9.646529E-02    5.945075E-03    2.022344E-04    4.217287E-06
         5.840992E-08    5.680978E-10    3.080776E-12   -5.771813E-14   -2.636296E-15   -6.928743E-17   -2.634086E-18   -9.602441E-20   -2.880757E-21   -7.173118E-23
        -1.564197E-24
  13    -3.178140E-23   -1.306981E-21   -4.634889E-20   -1.338188E-18   -3.394348E-17   -1.304438E-15   -3.555420E-14    9.749174E-13    2.727421E-10    3.503498E-08
         3.227429E-06    2.022344E-04    7.880771E-03    0.172924         1.93710         8.63876         1.93710        0.172924        7.880771E-03    2.022344E-04
         3.227429E-06    3.503498E-08    2.727420E-10    9.749326E-13   -3.555264E-14   -1.304306E-15   -3.393692E-17   -1.337781E-18   -4.633129E-20   -1.306391E-21
        -3.176440E-23
  14    -4.556774E-22   -1.715621E-20   -5.606144E-19   -1.487271E-17   -4.681192E-16   -1.504971E-14    7.198210E-14    7.469341E-11    1.198750E-08    1.394749E-06
         1.141089E-04    5.945075E-03    0.172924         2.39435         14.3602         34.9530         14.3602         2.39435        0.172924        5.945075E-03
         1.141089E-04    1.394749E-06    1.198750E-08    7.469333E-11    7.198698E-14   -1.504913E-14   -4.680939E-16   -1.487150E-17   -5.605544E-19   -1.715400E-20
        -4.556082E-22
  15    -4.458748E-21   -1.462664E-19   -4.211617E-18   -1.120567E-16   -3.998782E-15   -5.587597E-14    9.836394E-12    2.076367E-09    3.012307E-07    3.216547E-05
         2.299803E-03    9.646529E-02     1.93710         14.3602         42.2138         60.1295         42.2138         14.3602         1.93710        9.646529E-02
         2.299803E-03    3.216547E-05    3.012307E-07    2.076366E-09    9.836390E-12   -5.587487E-14   -3.998716E-15   -1.120546E-16   -4.211516E-18   -1.462623E-19
        -4.458611E-21
  16    -3.179268E-20   -8.503733E-19   -1.950559E-17   -6.617287E-16   -1.641278E-14    2.807001E-13    1.326666E-10    2.372487E-08    3.237475E-06    3.153977E-04
         1.960928E-02    0.653183         8.63876         34.9530         60.1295         75.4375         60.1295         34.9530         8.63876        0.653183    
         1.960928E-02    3.153977E-04    3.237475E-06    2.372487E-08    1.326666E-10    2.807001E-13   -1.641278E-14   -6.617287E-16   -1.950559E-17   -8.503733E-19
        -3.179268E-20
  17    -4.458625E-21   -1.462628E-19   -4.211527E-18   -1.120548E-16   -3.998724E-15   -5.587500E-14    9.836391E-12    2.076366E-09    3.012307E-07    3.216547E-05
         2.299803E-03    9.646529E-02     1.93710         14.3602         42.2138         60.1295         42.2138         14.3602         1.93710        9.646529E-02
         2.299803E-03    3.216547E-05    3.012307E-07    2.076367E-09    9.836394E-12   -5.587597E-14   -3.998782E-15   -1.120567E-16   -4.211617E-18   -1.462664E-19
        -4.458748E-21
  18    -4.556205E-22   -1.715439E-20   -5.605644E-19   -1.487169E-17   -4.680976E-16   -1.504920E-14    7.198645E-14    7.469334E-11    1.198750E-08    1.394749E-06
         1.141089E-04    5.945075E-03    0.172924         2.39435         14.3602         34.9530         14.3602         2.39435        0.172924        5.945075E-03
         1.141089E-04    1.394749E-06    1.198750E-08    7.469341E-11    7.198211E-14   -1.504971E-14   -4.681192E-16   -1.487271E-17   -5.606144E-19   -1.715621E-20
        -4.556774E-22
  19    -3.176831E-23   -1.306523E-21   -4.633513E-20   -1.337867E-18   -3.393819E-17   -1.304326E-15   -3.555264E-14    9.749303E-13    2.727420E-10    3.503498E-08
         3.227429E-06    2.022344E-04    7.880771E-03    0.172924         1.93710         8.63876         1.93710        0.172924        7.880771E-03    2.022344E-04
         3.227429E-06    3.503498E-08    2.727421E-10    9.749174E-13   -3.555420E-14   -1.304438E-15   -3.394348E-17   -1.338188E-18   -4.634889E-20   -1.306981E-21
        -3.178140E-23
  20    -1.564785E-24   -7.175385E-23   -2.881524E-21   -9.604563E-20   -2.634525E-18   -6.929304E-17   -2.636323E-15   -5.771638E-14    3.080768E-12    5.680977E-10
         5.840992E-08    4.217287E-06    2.022344E-04    5.945075E-03    9.646529E-02    0.653183        9.646529E-02    5.945075E-03    2.022344E-04    4.217287E-06
         5.840993E-08    5.680976E-10    3.080724E-12   -5.771510E-14   -2.636584E-15   -6.931606E-17   -2.636138E-18   -9.612013E-20   -2.884130E-21   -7.182865E-23
        -1.566675E-24
  21    -5.206786E-26   -2.740248E-24   -1.274931E-22   -5.008454E-21   -1.617916E-19   -4.356525E-18   -1.144823E-16   -4.077282E-15   -7.075825E-14    5.164638E-12
         7.209165E-10    5.840992E-08    3.227429E-06    1.141089E-04    2.299803E-03    1.960928E-02    2.299803E-03    1.141089E-04    3.227429E-06    5.840993E-08
         7.209159E-10    5.164554E-12   -7.075091E-14   -4.077851E-15   -1.145584E-16   -4.362289E-18   -1.620703E-19   -5.018509E-21   -1.277855E-22   -2.747437E-24
        -5.222553E-26
  22    -1.197193E-27   -7.420617E-26   -4.065523E-24   -1.895890E-22   -7.335446E-21   -2.311722E-19   -6.070590E-18   -1.538706E-16   -5.023884E-15   -7.417924E-14
         5.164641E-12    5.680978E-10    3.503498E-08    1.394749E-06    3.216547E-05    3.153977E-04    3.216547E-05    1.394749E-06    3.503498E-08    5.680976E-10
         5.164554E-12   -7.416614E-14   -5.024770E-15   -1.540331E-16   -6.084229E-18   -2.318739E-19   -7.361879E-21   -1.903757E-22   -4.084910E-24   -7.461600E-26
        -1.204947E-27
  23    -1.932424E-29   -1.450835E-27   -9.527231E-26   -5.318421E-24   -2.472050E-22   -9.365991E-21   -2.853317E-19   -7.162211E-18   -1.696928E-16   -5.023864E-15
        -7.076094E-14    3.080776E-12    2.727420E-10    1.198750E-08    3.012307E-07    3.237475E-06    3.012307E-07    1.198750E-08    2.727421E-10    3.080724E-12
        -7.075091E-14   -5.024770E-15   -1.699097E-16   -7.183556E-18   -2.865516E-19   -9.415381E-21   -2.487434E-22   -5.357118E-24   -9.608762E-26   -1.465619E-27
        -1.956305E-29
  24    -2.155136E-31   -2.045309E-29   -1.653004E-27   -1.121295E-25   -6.300883E-24   -2.883663E-22   -1.056058E-20   -3.059231E-19   -7.161294E-18   -1.538546E-16
        -4.077251E-15   -5.771813E-14    9.749326E-13    7.469333E-11    2.076366E-09    2.372487E-08    2.076367E-09    7.469341E-11    9.749174E-13   -5.771510E-14
        -4.077851E-15   -1.540331E-16   -7.183556E-18   -3.074221E-19   -1.062856E-20   -2.906522E-22   -6.361049E-24   -1.134193E-25   -1.676185E-27   -2.081001E-29
        -2.203565E-31
  25    -1.527836E-33   -2.012550E-31   -2.103426E-29   -1.783162E-27   -1.229451E-25   -6.840824E-24   -3.032941E-22   -1.055834E-20   -2.852390E-19   -6.068799E-18
        -1.144680E-16   -2.636296E-15   -3.555264E-14    7.198698E-14    9.836390E-12    1.326666E-10    9.836394E-12    7.198211E-14   -3.555420E-14   -2.636584E-15
        -1.145584E-16   -6.084229E-18   -2.865516E-19   -1.062856E-20   -3.059452E-22   -6.916174E-24   -1.246323E-25   -1.813887E-27   -2.149990E-29   -2.072352E-31
        -1.594437E-33
  26    -4.535011E-36   -1.233690E-33   -1.886911E-31   -2.117118E-29   -1.844950E-27   -1.266322E-25   -6.838879E-24   -2.882312E-22   -9.360971E-21   -2.310635E-19
        -4.355290E-18   -6.928743E-17   -1.304306E-15   -1.504913E-14   -5.587487E-14    2.807001E-13   -5.587597E-14   -1.504971E-14   -1.304438E-15   -6.931606E-17
        -4.362289E-18   -2.318739E-19   -9.415381E-21   -2.906522E-22   -6.916174E-24   -1.285005E-25   -1.880401E-27   -2.171259E-29   -1.954702E-31   -1.304347E-33
        -5.159443E-36
  27     2.947854E-38   -2.342246E-36   -1.046672E-33   -1.807797E-31   -2.116665E-29   -1.844229E-27   -1.228666E-25   -6.296075E-24   -2.470173E-22   -7.330864E-21
        -1.617274E-19   -2.634086E-18   -3.393692E-17   -4.680939E-16   -3.998716E-15   -1.641278E-14   -3.998782E-15   -4.681192E-16   -3.394348E-17   -2.636138E-18
        -1.620703E-19   -7.361879E-21   -2.487434E-22   -6.361049E-24   -1.246323E-25   -1.880401E-27   -2.174107E-29   -1.879803E-31   -1.118853E-33   -2.927458E-36
         2.557875E-38
  28     4.096071E-40    3.382208E-38   -1.311348E-36   -9.805445E-34   -1.806653E-31   -2.115139E-29   -1.781228E-27   -1.120052E-25   -5.313079E-24   -1.894410E-22
        -5.006011E-21   -9.602441E-20   -1.337781E-18   -1.487150E-17   -1.120546E-16   -6.617287E-16   -1.120567E-16   -1.487271E-17   -1.338188E-18   -9.612013E-20
        -5.018509E-21   -1.903757E-22   -5.357118E-24   -1.134193E-25   -1.813887E-27   -2.171259E-29   -1.879803E-31   -1.053510E-33   -1.869526E-36    3.054222E-38
         3.945864E-40
  29     2.035673E-42    3.595197E-40    3.468700E-38   -1.304657E-36   -1.044640E-33   -1.883580E-31   -2.099895E-29   -1.650470E-27   -9.514942E-26   -4.061643E-24
        -1.274190E-22   -2.880757E-21   -4.633129E-20   -5.605544E-19   -4.211516E-18   -1.950559E-17   -4.211617E-18   -5.606144E-19   -4.634889E-20   -2.884130E-21
        -1.277855E-22   -4.084910E-24   -9.608762E-26   -1.676185E-27   -2.149990E-29   -1.954702E-31   -1.118853E-33   -1.869526E-36    3.162592E-38    3.481271E-40
         2.006757E-42
  30     4.379047E-45    1.661071E-42    3.596174E-40    3.389005E-38   -2.320479E-36   -1.229553E-33   -2.007433E-31   -2.041051E-29   -1.448459E-27   -7.412022E-26
        -2.738361E-24   -7.173118E-23   -1.306391E-21   -1.715400E-20   -1.462623E-19   -8.503733E-19   -1.462664E-19   -1.715621E-20   -1.306981E-21   -7.182865E-23
        -2.747437E-24   -7.461600E-26   -1.465619E-27   -2.081001E-29   -2.072352E-31   -1.304347E-33   -2.927458E-36    3.054222E-38    3.481271E-40    1.641283E-42
         4.369655E-45
  31      0.00000        4.379211E-45    2.036132E-42    4.100157E-40    2.964880E-38   -4.494260E-36   -1.521667E-33   -2.149001E-31   -1.928404E-29   -1.195507E-27
        -5.202524E-26   -1.564197E-24   -3.176440E-23   -4.556082E-22   -4.458611E-21   -3.179268E-20   -4.458748E-21   -4.556774E-22   -3.178140E-23   -1.566675E-24
        -5.222553E-26   -1.204947E-27   -1.956305E-29   -2.203565E-31   -1.594437E-33   -5.159443E-36    2.557875E-38    3.945864E-40    2.006757E-42    4.369655E-45
          0.00000    

 CONCENTRATION WILL BE SAVED ON UNIT 1030 AT END OF TIME STEP   17, STRESS PERIOD    2


  MASS BUDGET FOR ENTIRE MODEL AT END OF TIME STEP   17, STRESS PERIOD   2
  ---------------------------------------------------------------------------------------------------

     CUMULATIVE MASS      M       RATES FOR THIS TIME STEP      M/T          PACKAGE NAME    
     ------------------                 ------------------------                     ----------------

           IN:                                      IN:
           ---                                      ---
     STORAGE-AQUEOUS =  3328970242.4671       STORAGE-AQUEOUS =     6521039.2663     MST                              
                 WEL =  7884000000.0000                   WEL =           0.0000     SSM_WEL-1                        
                 CHD =           0.0000                   CHD =           0.0000     SSM_CHD-1                        

            TOTAL IN = 11212970242.4671              TOTAL IN =     6521039.2663

          OUT:                                     OUT:
          ----                                     ----
     STORAGE-AQUEOUS =  7888107020.5452       STORAGE-AQUEOUS =        3241.2253     MST                              
                 WEL =  3324863221.9219                   WEL =     6517798.0410     SSM_WEL-1                        
                 CHD =       7.5562E-18                   CHD =           0.0000     SSM_CHD-1                        

           TOTAL OUT = 11212970242.4671             TOTAL OUT =     6521039.2663

            IN - OUT =      -3.8147E-06              IN - OUT =      -8.1025E-08

 PERCENT DISCREPANCY =          -0.00     PERCENT DISCREPANCY =          -0.00




         TIME SUMMARY AT END OF TIME STEP   17 IN STRESS PERIOD    2
                    SECONDS     MINUTES      HOURS       DAYS        YEARS
                    -----------------------------------------------------------
   TIME STEP LENGTH 2.16991E+06  36165.      602.75      25.115     6.87602E-02
 STRESS PERIOD TIME 3.68884E+07 6.14807E+05  10247.      426.95      1.1689    
         TOTAL TIME 1.15728E+08 1.92881E+06  32147.      1339.4      3.6672    


end timestep


start timestep kper="2" kstp="18" mode="normal"

 UBDSV1 SAVING  STORAGE-AQUEOUS ON UNIT   1029 AT TIME STEP     18, STRESS PERIOD      2
 UBDSV1 SAVING     FLOW-JA-FACE ON UNIT   1029 AT TIME STEP     18, STRESS PERIOD      2
 UBDSV06 SAVING  SOURCE-SINK MIX IN MODEL GWT_P06-MF6      PACKAGE GWT_P06-MF6     CONNECTED TO MODEL GWT_P06-MF6      PACKAGE SSM              ON UNIT   1029 AT TIME STEP     18, STRESS PERIOD      2
1
  CONCENTRATION IN LAYER   1 AT END OF TIME STEP  18 IN STRESS PERIOD    2
  ---------------------------------------------------------------------------

                1               2               3               4               5               6               7               8               9              10
               11              12              13              14              15              16              17              18              19              20
               21              22              23              24              25              26              27              28              29              30
               31
 ................................................................................................................................................................................................................................................................................................................................................................................................................................................................................................................
   1      0.00000        4.613621E-45    2.092693E-42    4.026464E-40    2.341400E-38   -5.994626E-36   -1.734004E-33   -2.350218E-31   -2.061903E-29   -1.258326E-27
        -5.411394E-26   -1.612831E-24   -3.256950E-23   -4.651994E-22   -4.533576E-21   -3.207961E-20   -4.533452E-21   -4.651418E-22   -3.255620E-23   -1.610907E-24
        -5.395264E-26   -1.250351E-27   -2.037185E-29   -2.299744E-31   -1.664065E-33   -5.333422E-36    2.758388E-38    4.189272E-40    2.124919E-42    4.626548E-45
          0.00000    
   2     4.613621E-45    1.702695E-42    3.554090E-40    2.941312E-38   -3.518060E-36   -1.417982E-33   -2.208017E-31   -2.192767E-29   -1.531423E-27   -7.740364E-26
        -2.831558E-24   -7.360934E-23   -1.333746E-21   -1.744563E-20   -1.482177E-19   -8.559624E-19   -1.482140E-19   -1.744379E-20   -1.333282E-21   -7.353340E-23
        -2.824231E-24   -7.698387E-26   -1.516199E-27   -2.155802E-29   -2.145717E-31   -1.343927E-33   -2.900701E-36    3.290022E-38    3.676680E-40    1.724656E-42
         4.626748E-45
   3     2.092693E-42    3.554090E-40    3.078531E-38   -2.342864E-36   -1.215492E-33   -2.079573E-31   -2.263273E-29   -1.750907E-27   -9.970564E-26   -4.212815E-24
        -1.310322E-22   -2.942338E-21   -4.710873E-20   -5.678553E-19   -4.260901E-18   -1.967014E-17   -4.260810E-18   -5.678050E-19   -4.709485E-20   -2.939703E-21
        -1.307353E-22   -4.193036E-24   -9.886975E-26   -1.727021E-27   -2.215053E-29   -2.009020E-31   -1.139985E-33   -1.755577E-36    3.403171E-38    3.677754E-40
         2.125444E-42
   4     4.026464E-40    2.941312E-38   -2.342864E-36   -1.144103E-33   -1.997684E-31   -2.283352E-29   -1.893504E-27   -1.176614E-25   -5.525608E-24   -1.952887E-22
        -5.121483E-21   -9.767611E-20   -1.357349E-18   -1.504142E-17   -1.135128E-16   -6.634227E-16   -1.135110E-16   -1.504041E-17   -1.357027E-18   -9.760108E-20
        -5.111312E-21   -1.944893E-22   -5.486098E-24   -1.163382E-25   -1.861840E-27   -2.227305E-29   -1.922802E-31   -1.067834E-33   -1.748466E-36    3.297352E-38
         4.193792E-40
   5     2.341400E-38   -3.518060E-36   -1.215492E-33   -1.997684E-31   -2.285375E-29   -1.961976E-27   -1.292480E-25   -6.560246E-24   -2.551917E-22   -7.515543E-21
        -1.647886E-19   -2.677714E-18   -3.458497E-17   -4.737679E-16   -3.985351E-15   -1.601591E-14   -3.985293E-15   -4.737462E-16   -3.457967E-17   -2.676098E-18
        -1.645079E-19   -7.488794E-21   -2.536274E-22   -6.498782E-24   -1.275166E-25   -1.925440E-27   -2.225919E-29   -1.921605E-31   -1.137843E-33   -2.877508E-36
         2.776850E-38
   6    -5.994626E-36   -1.417982E-33   -2.079573E-31   -2.283352E-29   -1.961976E-27   -1.332385E-25   -7.131747E-24   -2.981816E-22   -9.613867E-21   -2.359074E-19
        -4.437763E-18   -7.078746E-17   -1.317066E-15   -1.483087E-14   -4.652551E-14    3.882402E-13   -4.652455E-14   -1.483036E-14   -1.316954E-15   -7.076454E-17
        -4.431989E-18   -2.352006E-19   -9.563863E-21   -2.958561E-22   -7.054749E-24   -1.313212E-25   -1.924695E-27   -2.225248E-29   -2.005535E-31   -1.339560E-33
        -5.289844E-36
   7    -1.734004E-33   -2.208017E-31   -2.263273E-29   -1.893504E-27   -1.292480E-25   -7.131747E-24   -3.138637E-22   -1.085352E-20   -2.916457E-19   -6.195200E-18
        -1.170423E-16   -2.652313E-15   -3.412743E-14    1.468868E-13    1.167138E-11    1.518861E-10    1.167138E-11    1.468910E-13   -3.412587E-14   -2.652055E-15
        -1.169668E-16   -6.181540E-18   -2.904165E-19   -1.078467E-20   -3.111665E-22   -7.052759E-24   -1.274359E-25   -1.859840E-27   -2.211382E-29   -2.140359E-31
        -1.657543E-33
   8    -2.350218E-31   -2.192767E-29   -1.750907E-27   -1.176614E-25   -6.560246E-24   -2.981816E-22   -1.085352E-20   -3.129253E-19   -7.317497E-18   -1.573398E-16
        -4.085743E-15   -5.314664E-14    1.281737E-12    8.682902E-11    2.357041E-09    2.646787E-08    2.357041E-09    8.682895E-11    1.281749E-12   -5.314785E-14
        -4.085188E-15   -1.571791E-16   -7.296120E-18   -3.114148E-19   -1.078241E-20   -2.957186E-22   -6.493863E-24   -1.162104E-25   -1.724403E-27   -2.151377E-29
        -2.293319E-31
   9    -2.061903E-29   -1.531423E-27   -9.970564E-26   -5.525608E-24   -2.551917E-22   -9.613867E-21   -2.916457E-19   -7.317497E-18   -1.735313E-16   -5.020955E-15
        -6.196374E-14    3.827848E-12    3.145246E-10    1.351802E-08    3.332072E-07    3.513049E-06    3.332072E-07    1.351802E-08    3.145244E-10    3.827891E-12
        -6.197087E-14   -5.020095E-15   -1.733169E-16   -7.295201E-18   -2.903232E-19   -9.558777E-21   -2.534364E-22   -5.480637E-24   -9.874354E-26   -1.513747E-27
        -2.033012E-29
  10    -1.258326E-27   -7.740364E-26   -4.212815E-24   -1.952887E-22   -7.515543E-21   -2.359074E-19   -6.195200E-18   -1.573398E-16   -5.020955E-15   -6.330180E-14
         6.314867E-12    6.525017E-10    3.931005E-08    1.530944E-06    3.455477E-05    3.319661E-04    3.455477E-05    1.530944E-06    3.931005E-08    6.525017E-10
         6.314949E-12   -6.331458E-14   -5.020076E-15   -1.571633E-16   -6.179747E-18   -2.350911E-19   -7.484155E-21   -1.943388E-22   -4.189075E-24   -7.689574E-26
        -1.248614E-27
  11    -5.411394E-26   -2.831558E-24   -1.310322E-22   -5.121483E-21   -1.647886E-19   -4.437763E-18   -1.170423E-16   -4.085743E-15   -6.196374E-14    6.314867E-12
         8.269750E-10    6.536230E-08    3.524369E-06    1.215743E-04    2.394200E-03    1.998832E-02    2.394200E-03    1.215743E-04    3.524369E-06    6.536230E-08
         8.269756E-10    6.314953E-12   -6.197352E-14   -4.085160E-15   -1.169528E-16   -4.430753E-18   -1.644433E-19   -5.108842E-21   -1.306600E-22   -2.822307E-24
        -5.390903E-26
  12    -1.612831E-24   -7.360934E-23   -2.942338E-21   -9.767611E-20   -2.677714E-18   -7.078746E-17   -2.652313E-15   -5.314664E-14    3.827848E-12    6.525017E-10
         6.536230E-08    4.597096E-06    2.144776E-04    6.137384E-03    9.723216E-02    0.645401        9.723216E-02    6.137384E-03    2.144776E-04    4.597096E-06
         6.536229E-08    6.525019E-10    3.827899E-12   -5.314957E-14   -2.652030E-15   -7.075898E-17   -2.675658E-18   -9.757972E-20   -2.938928E-21   -7.351041E-23
        -1.610308E-24
  13    -3.256950E-23   -1.333746E-21   -4.710873E-20   -1.357349E-18   -3.458497E-17   -1.317066E-15   -3.412743E-14    1.281737E-12    3.145246E-10    3.931005E-08
         3.524369E-06    2.144776E-04    8.110878E-03    0.173006         1.89623         8.35094         1.89623        0.173006        8.110878E-03    2.144776E-04
         3.524369E-06    3.931005E-08    3.145244E-10    1.281752E-12   -3.412587E-14   -1.316935E-15   -3.457840E-17   -1.356941E-18   -4.709098E-20   -1.333148E-21
        -3.255223E-23
  14    -4.651994E-22   -1.744563E-20   -5.678553E-19   -1.504142E-17   -4.737679E-16   -1.483087E-14    1.468868E-13    8.682902E-11    1.351802E-08    1.530944E-06
         1.215743E-04    6.137384E-03    0.173006         2.33357         13.8230         33.6180         13.8230         2.33357        0.173006        6.137384E-03
         1.215743E-04    1.530944E-06    1.351802E-08    8.682894E-11    1.468916E-13   -1.483029E-14   -4.737425E-16   -1.504021E-17   -5.677949E-19   -1.744340E-20
        -4.651294E-22
  15    -4.533576E-21   -1.482177E-19   -4.260901E-18   -1.135128E-16   -3.985351E-15   -4.652551E-14    1.167138E-11    2.357041E-09    3.332072E-07    3.455477E-05
         2.394200E-03    9.723216E-02     1.89623         13.8230         40.6929         58.0458         40.6929         13.8230         1.89623        9.723216E-02
         2.394200E-03    3.455477E-05    3.332072E-07    2.357041E-09    1.167138E-11   -4.652441E-14   -3.985285E-15   -1.135107E-16   -4.260799E-18   -1.482136E-19
        -4.533438E-21
  16    -3.207961E-20   -8.559624E-19   -1.967014E-17   -6.634227E-16   -1.601591E-14    3.882402E-13    1.518861E-10    2.646787E-08    3.513049E-06    3.319661E-04
         1.998832E-02    0.645401         8.35094         33.6180         58.0458         73.2138         58.0458         33.6180         8.35094        0.645401    
         1.998832E-02    3.319661E-04    3.513049E-06    2.646787E-08    1.518861E-10    3.882402E-13   -1.601591E-14   -6.634228E-16   -1.967014E-17   -8.559624E-19
        -3.207961E-20
  17    -4.533452E-21   -1.482140E-19   -4.260810E-18   -1.135110E-16   -3.985293E-15   -4.652455E-14    1.167138E-11    2.357041E-09    3.332072E-07    3.455477E-05
         2.394200E-03    9.723216E-02     1.89623         13.8230         40.6929         58.0458         40.6929         13.8230         1.89623        9.723216E-02
         2.394200E-03    3.455477E-05    3.332072E-07    2.357041E-09    1.167138E-11   -4.652550E-14   -3.985351E-15   -1.135128E-16   -4.260901E-18   -1.482177E-19
        -4.533576E-21
  18    -4.651418E-22   -1.744379E-20   -5.678050E-19   -1.504041E-17   -4.737462E-16   -1.483036E-14    1.468910E-13    8.682895E-11    1.351802E-08    1.530944E-06
         1.215743E-04    6.137384E-03    0.173006         2.33357         13.8230         33.6180         13.8230         2.33357        0.173006        6.137384E-03
         1.215743E-04    1.530944E-06    1.351802E-08    8.682902E-11    1.468868E-13   -1.483087E-14   -4.737679E-16   -1.504142E-17   -5.678553E-19   -1.744563E-20
        -4.651994E-22
  19    -3.255620E-23   -1.333282E-21   -4.709485E-20   -1.357027E-18   -3.457967E-17   -1.316954E-15   -3.412587E-14    1.281749E-12    3.145244E-10    3.931005E-08
         3.524369E-06    2.144776E-04    8.110878E-03    0.173006         1.89623         8.35094         1.89623        0.173006        8.110878E-03    2.144776E-04
         3.524369E-06    3.931005E-08    3.145246E-10    1.281737E-12   -3.412743E-14   -1.317066E-15   -3.458497E-17   -1.357349E-18   -4.710873E-20   -1.333746E-21
        -3.256950E-23
  20    -1.610907E-24   -7.353340E-23   -2.939703E-21   -9.760108E-20   -2.676098E-18   -7.076454E-17   -2.652055E-15   -5.314785E-14    3.827891E-12    6.525017E-10
         6.536230E-08    4.597096E-06    2.144776E-04    6.137384E-03    9.723216E-02    0.645401        9.723216E-02    6.137384E-03    2.144776E-04    4.597096E-06
         6.536230E-08    6.525017E-10    3.827848E-12   -5.314664E-14   -2.652313E-15   -7.078746E-17   -2.677714E-18   -9.767611E-20   -2.942338E-21   -7.360934E-23
        -1.612831E-24
  21    -5.395264E-26   -2.824231E-24   -1.307353E-22   -5.111312E-21   -1.645079E-19   -4.431989E-18   -1.169668E-16   -4.085188E-15   -6.197087E-14    6.314949E-12
         8.269756E-10    6.536229E-08    3.524369E-06    1.215743E-04    2.394200E-03    1.998832E-02    2.394200E-03    1.215743E-04    3.524369E-06    6.536230E-08
         8.269750E-10    6.314867E-12   -6.196374E-14   -4.085743E-15   -1.170423E-16   -4.437763E-18   -1.647886E-19   -5.121483E-21   -1.310322E-22   -2.831558E-24
        -5.411394E-26
  22    -1.250351E-27   -7.698387E-26   -4.193036E-24   -1.944893E-22   -7.488794E-21   -2.352006E-19   -6.181540E-18   -1.571791E-16   -5.020095E-15   -6.331458E-14
         6.314953E-12    6.525019E-10    3.931005E-08    1.530944E-06    3.455477E-05    3.319661E-04    3.455477E-05    1.530944E-06    3.931005E-08    6.525017E-10
         6.314867E-12   -6.330180E-14   -5.020955E-15   -1.573398E-16   -6.195200E-18   -2.359074E-19   -7.515543E-21   -1.952887E-22   -4.212815E-24   -7.740364E-26
        -1.258326E-27
  23    -2.037185E-29   -1.516199E-27   -9.886975E-26   -5.486098E-24   -2.536274E-22   -9.563863E-21   -2.904165E-19   -7.296120E-18   -1.733169E-16   -5.020076E-15
        -6.197352E-14    3.827899E-12    3.145244E-10    1.351802E-08    3.332072E-07    3.513049E-06    3.332072E-07    1.351802E-08    3.145246E-10    3.827848E-12
        -6.196374E-14   -5.020955E-15   -1.735313E-16   -7.317497E-18   -2.916457E-19   -9.613867E-21   -2.551917E-22   -5.525608E-24   -9.970564E-26   -1.531423E-27
        -2.061903E-29
  24    -2.299744E-31   -2.155802E-29   -1.727021E-27   -1.163382E-25   -6.498782E-24   -2.958561E-22   -1.078467E-20   -3.114148E-19   -7.295201E-18   -1.571633E-16
        -4.085160E-15   -5.314957E-14    1.281752E-12    8.682894E-11    2.357041E-09    2.646787E-08    2.357041E-09    8.682902E-11    1.281737E-12   -5.314664E-14
        -4.085743E-15   -1.573398E-16   -7.317497E-18   -3.129253E-19   -1.085352E-20   -2.981816E-22   -6.560246E-24   -1.176614E-25   -1.750907E-27   -2.192767E-29
        -2.350218E-31
  25    -1.664065E-33   -2.145717E-31   -2.215053E-29   -1.861840E-27   -1.275166E-25   -7.054749E-24   -3.111665E-22   -1.078241E-20   -2.903232E-19   -6.179747E-18
        -1.169528E-16   -2.652030E-15   -3.412587E-14    1.468916E-13    1.167138E-11    1.518861E-10    1.167138E-11    1.468868E-13   -3.412743E-14   -2.652313E-15
        -1.170423E-16   -6.195200E-18   -2.916457E-19   -1.085352E-20   -3.138637E-22   -7.131747E-24   -1.292480E-25   -1.893504E-27   -2.263273E-29   -2.208017E-31
        -1.734004E-33
  26    -5.333422E-36   -1.343927E-33   -2.009020E-31   -2.227305E-29   -1.925440E-27   -1.313212E-25   -7.052759E-24   -2.957186E-22   -9.558777E-21   -2.350911E-19
        -4.430753E-18   -7.075898E-17   -1.316935E-15   -1.483029E-14   -4.652441E-14    3.882402E-13   -4.652550E-14   -1.483087E-14   -1.317066E-15   -7.078746E-17
        -4.437763E-18   -2.359074E-19   -9.613867E-21   -2.981816E-22   -7.131747E-24   -1.332385E-25   -1.961976E-27   -2.283352E-29   -2.079573E-31   -1.417982E-33
        -5.994626E-36
  27     2.758388E-38   -2.900701E-36   -1.139985E-33   -1.922802E-31   -2.225919E-29   -1.924695E-27   -1.274359E-25   -6.493863E-24   -2.534364E-22   -7.484155E-21
        -1.644433E-19   -2.675658E-18   -3.457840E-17   -4.737425E-16   -3.985285E-15   -1.601591E-14   -3.985351E-15   -4.737679E-16   -3.458497E-17   -2.677714E-18
        -1.647886E-19   -7.515543E-21   -2.551917E-22   -6.560246E-24   -1.292480E-25   -1.961976E-27   -2.285375E-29   -1.997684E-31   -1.215492E-33   -3.518060E-36
         2.341400E-38
  28     4.189272E-40    3.290022E-38   -1.755577E-36   -1.067834E-33   -1.921605E-31   -2.225248E-29   -1.859840E-27   -1.162104E-25   -5.480637E-24   -1.943388E-22
        -5.108842E-21   -9.757972E-20   -1.356941E-18   -1.504021E-17   -1.135107E-16   -6.634228E-16   -1.135128E-16   -1.504142E-17   -1.357349E-18   -9.767611E-20
        -5.121483E-21   -1.952887E-22   -5.525608E-24   -1.176614E-25   -1.893504E-27   -2.283352E-29   -1.997684E-31   -1.144103E-33   -2.342864E-36    2.941312E-38
         4.026464E-40
  29     2.124919E-42    3.676680E-40    3.403171E-38   -1.748466E-36   -1.137843E-33   -2.005535E-31   -2.211382E-29   -1.724403E-27   -9.874354E-26   -4.189075E-24
        -1.306600E-22   -2.938928E-21   -4.709098E-20   -5.677949E-19   -4.260799E-18   -1.967014E-17   -4.260901E-18   -5.678553E-19   -4.710873E-20   -2.942338E-21
        -1.310322E-22   -4.212815E-24   -9.970564E-26   -1.750907E-27   -2.263273E-29   -2.079573E-31   -1.215492E-33   -2.342864E-36    3.078531E-38    3.554090E-40
         2.092693E-42
  30     4.626548E-45    1.724656E-42    3.677754E-40    3.297352E-38   -2.877508E-36   -1.339560E-33   -2.140359E-31   -2.151377E-29   -1.513747E-27   -7.689574E-26
        -2.822307E-24   -7.351041E-23   -1.333148E-21   -1.744340E-20   -1.482136E-19   -8.559624E-19   -1.482177E-19   -1.744563E-20   -1.333746E-21   -7.360934E-23
        -2.831558E-24   -7.740364E-26   -1.531423E-27   -2.192767E-29   -2.208017E-31   -1.417982E-33   -3.518060E-36    2.941312E-38    3.554090E-40    1.702695E-42
         4.613622E-45
  31      0.00000        4.626748E-45    2.125444E-42    4.193792E-40    2.776850E-38   -5.289844E-36   -1.657543E-33   -2.293319E-31   -2.033012E-29   -1.248614E-27
        -5.390903E-26   -1.610308E-24   -3.255223E-23   -4.651294E-22   -4.533438E-21   -3.207961E-20   -4.533576E-21   -4.651994E-22   -3.256950E-23   -1.612831E-24
        -5.411394E-26   -1.258326E-27   -2.061903E-29   -2.350218E-31   -1.734004E-33   -5.994626E-36    2.341400E-38    4.026464E-40    2.092693E-42    4.613622E-45
          0.00000    

 CONCENTRATION WILL BE SAVED ON UNIT 1030 AT END OF TIME STEP   18, STRESS PERIOD    2


  MASS BUDGET FOR ENTIRE MODEL AT END OF TIME STEP   18, STRESS PERIOD   2
  ---------------------------------------------------------------------------------------------------

     CUMULATIVE MASS      M       RATES FOR THIS TIME STEP      M/T          PACKAGE NAME    
     ------------------                 ------------------------                     ----------------

           IN:                                      IN:
           ---                                      ---
     STORAGE-AQUEOUS =  3487904255.8624       STORAGE-AQUEOUS =     6328331.4923     MST                              
                 WEL =  7884000000.0000                   WEL =           0.0000     SSM_WEL-1                        
                 CHD =           0.0000                   CHD =           0.0000     SSM_CHD-1                        

            TOTAL IN = 11371904255.8624              TOTAL IN =     6328331.4923

          OUT:                                     OUT:
          ----                                     ----
     STORAGE-AQUEOUS =  7888173752.8634       STORAGE-AQUEOUS =        2657.1042     MST                              
                 WEL =  3483730502.9991                   WEL =     6325674.3881     SSM_WEL-1                        
                 CHD =       7.5562E-18                   CHD =           0.0000     SSM_CHD-1                        

           TOTAL OUT = 11371904255.8625             TOTAL OUT =     6328331.4923

            IN - OUT =      -9.5367E-06              IN - OUT =      -1.1362E-07

 PERCENT DISCREPANCY =          -0.00     PERCENT DISCREPANCY =          -0.00




         TIME SUMMARY AT END OF TIME STEP   18 IN STRESS PERIOD    2
                    SECONDS     MINUTES      HOURS       DAYS        YEARS
                    -----------------------------------------------------------
   TIME STEP LENGTH 2.16991E+06  36165.      602.75      25.115     6.87602E-02
 STRESS PERIOD TIME 3.90583E+07 6.50972E+05  10850.      452.06      1.2377    
         TOTAL TIME 1.17898E+08 1.96497E+06  32750.      1364.6      3.7360    


end timestep


start timestep kper="2" kstp="19" mode="normal"

 UBDSV1 SAVING  STORAGE-AQUEOUS ON UNIT   1029 AT TIME STEP     19, STRESS PERIOD      2
 UBDSV1 SAVING     FLOW-JA-FACE ON UNIT   1029 AT TIME STEP     19, STRESS PERIOD      2
 UBDSV06 SAVING  SOURCE-SINK MIX IN MODEL GWT_P06-MF6      PACKAGE GWT_P06-MF6     CONNECTED TO MODEL GWT_P06-MF6      PACKAGE SSM              ON UNIT   1029 AT TIME STEP     19, STRESS PERIOD      2
1
  CONCENTRATION IN LAYER   1 AT END OF TIME STEP  19 IN STRESS PERIOD    2
  ---------------------------------------------------------------------------

                1               2               3               4               5               6               7               8               9              10
               11              12              13              14              15              16              17              18              19              20
               21              22              23              24              25              26              27              28              29              30
               31
 ................................................................................................................................................................................................................................................................................................................................................................................................................................................................................................................
   1      0.00000        4.867233E-45    2.180194E-42    4.100397E-40    2.091456E-38   -6.899968E-36   -1.882538E-33   -2.504565E-31   -2.172082E-29   -1.313609E-27
        -5.605713E-26   -1.660079E-24   -3.337283E-23   -4.748683E-22   -4.609211E-21   -3.236794E-20   -4.609086E-21   -4.748099E-22   -3.335933E-23   -1.658119E-24
        -5.589214E-26   -1.305407E-27   -2.146503E-29   -2.451975E-31   -1.809125E-33   -6.200218E-36    2.536966E-38    4.276631E-40    2.215991E-42    4.884077E-45
          0.00000    
   2     4.867233E-45    1.765275E-42    3.623686E-40    2.808036E-38   -4.157695E-36   -1.538765E-33   -2.350716E-31   -2.309396E-29   -1.599617E-27   -8.027426E-26
        -2.917686E-24   -7.542368E-23   -1.360913E-21   -1.773832E-20   -1.501876E-19   -8.616104E-19   -1.501839E-19   -1.773646E-20   -1.360444E-21   -7.534661E-23
        -2.910218E-24   -7.984436E-26   -1.583941E-27   -2.271121E-29   -2.285832E-31   -1.461175E-33   -3.506700E-36    3.178564E-38    3.755469E-40    1.789571E-42
         4.884318E-45
   3     2.180194E-42    3.623686E-40    2.977964E-38   -2.855108E-36   -1.318080E-33   -2.210799E-31   -2.381437E-29   -1.828346E-27   -1.034328E-25   -4.343825E-24
        -1.343403E-22   -3.001410E-21   -4.787832E-20   -5.751731E-19   -4.310782E-18   -1.983350E-17   -4.310691E-18   -5.751225E-19   -4.786433E-20   -2.998745E-21
        -1.340388E-22   -4.323649E-24   -1.025759E-25   -1.803738E-27   -2.331511E-29   -2.137388E-31   -1.239114E-33   -2.237400E-36    3.322092E-38    3.756647E-40
         2.216590E-42
   4     4.100397E-40    2.808036E-38   -2.855108E-36   -1.240218E-33   -2.121480E-31   -2.400214E-29   -1.975996E-27   -1.220315E-25   -5.698230E-24   -2.002961E-22
        -5.226017E-21   -9.925548E-20   -1.376848E-18   -1.521215E-17   -1.149376E-16   -6.647959E-16   -1.149357E-16   -1.521113E-17   -1.376524E-18   -9.917991E-20
        -5.215729E-21   -1.994839E-22   -5.657894E-24   -1.206743E-25   -1.943369E-27   -2.342204E-29   -2.043622E-31   -1.160516E-33   -2.229848E-36    3.186462E-38
         4.281620E-40
   5     2.091456E-38   -4.157695E-36   -1.318080E-33   -2.121480E-31   -2.401351E-29   -2.046477E-27   -1.340025E-25   -6.764343E-24   -2.617658E-22   -7.671637E-21
        -1.675528E-19   -2.720214E-18   -3.522752E-17   -4.791368E-16   -3.965035E-15   -1.553874E-14   -3.964977E-15   -4.791150E-16   -3.522221E-17   -2.718594E-18
        -1.672702E-19   -7.644571E-21   -2.601754E-22   -6.701561E-24   -1.322261E-25   -2.008830E-27   -2.339820E-29   -2.042372E-31   -1.236858E-33   -3.482004E-36
         2.556961E-38
   6    -6.899968E-36   -1.538765E-33   -2.210799E-31   -2.400214E-29   -2.046477E-27   -1.381188E-25   -7.352621E-24   -3.058591E-22   -9.815604E-21   -2.400145E-19
        -4.514944E-18   -7.224977E-17   -1.328147E-15   -1.454619E-14   -3.565192E-14    5.098283E-13   -3.565097E-14   -1.454568E-14   -1.328035E-15   -7.222694E-17
        -4.509160E-18   -2.393025E-19   -9.764983E-21   -3.034938E-22   -7.273950E-24   -1.361514E-25   -2.008060E-27   -2.340066E-29   -2.133743E-31   -1.456567E-33
        -6.153658E-36
   7    -1.882538E-33   -2.350716E-31   -2.381437E-29   -1.975996E-27   -1.340025E-25   -7.352621E-24   -3.219386E-22   -1.108223E-20   -2.968363E-19   -6.308606E-18
        -1.194900E-16   -2.662893E-15   -3.239111E-14    2.325694E-13    1.373801E-11    1.731751E-10    1.373800E-11    2.325735E-13   -3.238955E-14   -2.662638E-15
        -1.194152E-16   -6.294927E-18   -2.955979E-19   -1.101251E-20   -3.191947E-22   -7.271913E-24   -1.321431E-25   -1.941302E-27   -2.327696E-29   -2.280223E-31
        -1.802231E-33
   8    -2.504565E-31   -2.309396E-29   -1.828346E-27   -1.220315E-25   -6.764343E-24   -3.058591E-22   -1.108223E-20   -3.185338E-19   -7.454297E-18   -1.605750E-16
        -4.082678E-15   -4.770665E-14    1.631327E-12    1.004179E-10    2.665270E-09    2.941971E-08    2.665270E-09    1.004179E-10    1.631339E-12   -4.770780E-14
        -4.082136E-15   -1.604159E-16   -7.432890E-18   -3.170119E-19   -1.101022E-20   -3.033537E-22   -6.696528E-24   -1.205429E-25   -1.801033E-27   -2.266522E-29
        -2.445250E-31
   9    -2.172082E-29   -1.599617E-27   -1.034328E-25   -5.698230E-24   -2.617658E-22   -9.815604E-21   -2.968363E-19   -7.454297E-18   -1.770643E-16   -5.001405E-15
        -5.158758E-14    4.676804E-12    3.610758E-10    1.518546E-08    3.672579E-07    3.799976E-06    3.672580E-07    1.518546E-08    3.610757E-10    4.676847E-12
        -5.159451E-14   -5.000570E-15   -1.768523E-16   -7.431971E-18   -2.955038E-19   -9.759832E-21   -2.599810E-22   -5.652312E-24   -1.024463E-25   -1.581411E-27
        -2.142173E-29
  10    -1.313609E-27   -8.027426E-26   -4.343825E-24   -2.002961E-22   -7.671637E-21   -2.400145E-19   -6.308606E-18   -1.605750E-16   -5.001405E-15   -5.050248E-14
         7.620090E-12    7.462312E-10    4.394035E-08    1.674657E-06    3.701161E-05    3.485617E-04    3.701161E-05    1.674657E-06    4.394034E-08    7.462313E-10
         7.620171E-12   -5.051496E-14   -5.000553E-15   -1.604003E-16   -6.293131E-18   -2.391922E-19   -7.639875E-21   -1.993309E-22   -4.319605E-24   -7.975401E-26
        -1.303619E-27
  11    -5.605713E-26   -2.917686E-24   -1.343403E-22   -5.226017E-21   -1.675528E-19   -4.514944E-18   -1.194900E-16   -4.082678E-15   -5.158758E-14    7.620090E-12
         9.446192E-10    7.286904E-08    3.835756E-06    1.291667E-04    2.487140E-03    2.034485E-02    2.487140E-03    1.291667E-04    3.835756E-06    7.286903E-08
         9.446198E-10    7.620174E-12   -5.159713E-14   -4.082111E-15   -1.194013E-16   -4.507923E-18   -1.672051E-19   -5.213231E-21   -1.339624E-22   -2.908257E-24
        -5.584752E-26
  12    -1.660079E-24   -7.542368E-23   -3.001410E-21   -9.925548E-20   -2.720214E-18   -7.224977E-17   -2.662893E-15   -4.770665E-14    4.676804E-12    7.462312E-10
         7.286904E-08    4.994498E-06    2.268461E-04    6.323491E-03    9.789077E-02    0.637423        9.789077E-02    6.323491E-03    2.268461E-04    4.994498E-06
         7.286903E-08    7.462315E-10    4.676855E-12   -4.770949E-14   -2.662615E-15   -7.222144E-17   -2.718154E-18   -9.915842E-20   -2.997962E-21   -7.532328E-23
        -1.657510E-24
  13    -3.337283E-23   -1.360913E-21   -4.787832E-20   -1.376848E-18   -3.522752E-17   -1.328147E-15   -3.239111E-14    1.631327E-12    3.610758E-10    4.394035E-08
         3.835756E-06    2.268461E-04    8.331706E-03    0.172912         1.85577         8.07344         1.85577        0.172912        8.331706E-03    2.268461E-04
         3.835756E-06    4.394034E-08    3.610757E-10    1.631341E-12   -3.238955E-14   -1.328016E-15   -3.522094E-17   -1.376438E-18   -4.786044E-20   -1.360309E-21
        -3.335531E-23
  14    -4.748683E-22   -1.773832E-20   -5.751731E-19   -1.521215E-17   -4.791368E-16   -1.454619E-14    2.325694E-13    1.004179E-10    1.518546E-08    1.674657E-06
         1.291667E-04    6.323491E-03    0.172912         2.27397         13.3082         32.3350         13.3082         2.27397        0.172912        6.323491E-03
         1.291667E-04    1.674657E-06    1.518546E-08    1.004179E-10    2.325740E-13   -1.454561E-14   -4.791113E-16   -1.521093E-17   -5.751123E-19   -1.773607E-20
        -4.747973E-22
  15    -4.609211E-21   -1.501876E-19   -4.310782E-18   -1.149376E-16   -3.965035E-15   -3.565192E-14    1.373801E-11    2.665270E-09    3.672579E-07    3.701161E-05
         2.487140E-03    9.789077E-02     1.85577         13.3082         39.2243         56.0139         39.2243         13.3082         1.85577        9.789077E-02
         2.487140E-03    3.701161E-05    3.672580E-07    2.665270E-09    1.373800E-11   -3.565084E-14   -3.964969E-15   -1.149355E-16   -4.310680E-18   -1.501835E-19
        -4.609071E-21
  16    -3.236794E-20   -8.616104E-19   -1.983350E-17   -6.647959E-16   -1.553874E-14    5.098283E-13    1.731751E-10    2.941971E-08    3.799976E-06    3.485617E-04
         2.034485E-02    0.637423         8.07344         32.3350         56.0139         70.9927         56.0139         32.3350         8.07344        0.637423    
         2.034485E-02    3.485617E-04    3.799976E-06    2.941971E-08    1.731751E-10    5.098283E-13   -1.553874E-14   -6.647959E-16   -1.983350E-17   -8.616104E-19
        -3.236794E-20
  17    -4.609086E-21   -1.501839E-19   -4.310691E-18   -1.149357E-16   -3.964977E-15   -3.565097E-14    1.373800E-11    2.665270E-09    3.672580E-07    3.701161E-05
         2.487140E-03    9.789077E-02     1.85577         13.3082         39.2243         56.0139         39.2243         13.3082         1.85577        9.789077E-02
         2.487140E-03    3.701161E-05    3.672579E-07    2.665270E-09    1.373801E-11   -3.565192E-14   -3.965035E-15   -1.149376E-16   -4.310782E-18   -1.501876E-19
        -4.609211E-21
  18    -4.748099E-22   -1.773646E-20   -5.751225E-19   -1.521113E-17   -4.791150E-16   -1.454568E-14    2.325735E-13    1.004179E-10    1.518546E-08    1.674657E-06
         1.291667E-04    6.323491E-03    0.172912         2.27397         13.3082         32.3350         13.3082         2.27397        0.172912        6.323491E-03
         1.291667E-04    1.674657E-06    1.518546E-08    1.004179E-10    2.325694E-13   -1.454619E-14   -4.791367E-16   -1.521215E-17   -5.751731E-19   -1.773832E-20
        -4.748683E-22
  19    -3.335933E-23   -1.360444E-21   -4.786433E-20   -1.376524E-18   -3.522221E-17   -1.328035E-15   -3.238955E-14    1.631339E-12    3.610757E-10    4.394034E-08
         3.835756E-06    2.268461E-04    8.331706E-03    0.172912         1.85577         8.07344         1.85577        0.172912        8.331706E-03    2.268461E-04
         3.835756E-06    4.394035E-08    3.610758E-10    1.631327E-12   -3.239111E-14   -1.328147E-15   -3.522752E-17   -1.376848E-18   -4.787832E-20   -1.360913E-21
        -3.337283E-23
  20    -1.658119E-24   -7.534661E-23   -2.998745E-21   -9.917991E-20   -2.718594E-18   -7.222694E-17   -2.662638E-15   -4.770780E-14    4.676847E-12    7.462313E-10
         7.286903E-08    4.994498E-06    2.268461E-04    6.323491E-03    9.789077E-02    0.637423        9.789077E-02    6.323491E-03    2.268461E-04    4.994498E-06
         7.286904E-08    7.462312E-10    4.676804E-12   -4.770665E-14   -2.662893E-15   -7.224977E-17   -2.720214E-18   -9.925548E-20   -3.001410E-21   -7.542368E-23
        -1.660079E-24
  21    -5.589214E-26   -2.910218E-24   -1.340388E-22   -5.215729E-21   -1.672702E-19   -4.509160E-18   -1.194152E-16   -4.082136E-15   -5.159451E-14    7.620171E-12
         9.446198E-10    7.286903E-08    3.835756E-06    1.291667E-04    2.487140E-03    2.034485E-02    2.487140E-03    1.291667E-04    3.835756E-06    7.286904E-08
         9.446192E-10    7.620090E-12   -5.158758E-14   -4.082678E-15   -1.194900E-16   -4.514944E-18   -1.675528E-19   -5.226017E-21   -1.343403E-22   -2.917686E-24
        -5.605713E-26
  22    -1.305407E-27   -7.984436E-26   -4.323649E-24   -1.994839E-22   -7.644571E-21   -2.393025E-19   -6.294927E-18   -1.604159E-16   -5.000570E-15   -5.051496E-14
         7.620174E-12    7.462315E-10    4.394034E-08    1.674657E-06    3.701161E-05    3.485617E-04    3.701161E-05    1.674657E-06    4.394035E-08    7.462312E-10
         7.620090E-12   -5.050248E-14   -5.001405E-15   -1.605750E-16   -6.308606E-18   -2.400145E-19   -7.671637E-21   -2.002961E-22   -4.343825E-24   -8.027426E-26
        -1.313609E-27
  23    -2.146503E-29   -1.583941E-27   -1.025759E-25   -5.657894E-24   -2.601754E-22   -9.764983E-21   -2.955979E-19   -7.432890E-18   -1.768523E-16   -5.000553E-15
        -5.159713E-14    4.676855E-12    3.610757E-10    1.518546E-08    3.672580E-07    3.799976E-06    3.672579E-07    1.518546E-08    3.610758E-10    4.676804E-12
        -5.158758E-14   -5.001405E-15   -1.770643E-16   -7.454297E-18   -2.968363E-19   -9.815604E-21   -2.617658E-22   -5.698230E-24   -1.034328E-25   -1.599617E-27
        -2.172082E-29
  24    -2.451975E-31   -2.271121E-29   -1.803738E-27   -1.206743E-25   -6.701561E-24   -3.034938E-22   -1.101251E-20   -3.170119E-19   -7.431971E-18   -1.604003E-16
        -4.082111E-15   -4.770949E-14    1.631341E-12    1.004179E-10    2.665270E-09    2.941971E-08    2.665270E-09    1.004179E-10    1.631327E-12   -4.770665E-14
        -4.082678E-15   -1.605750E-16   -7.454297E-18   -3.185338E-19   -1.108223E-20   -3.058591E-22   -6.764343E-24   -1.220315E-25   -1.828346E-27   -2.309396E-29
        -2.504565E-31
  25    -1.809125E-33   -2.285832E-31   -2.331511E-29   -1.943369E-27   -1.322261E-25   -7.273950E-24   -3.191947E-22   -1.101022E-20   -2.955038E-19   -6.293131E-18
        -1.194013E-16   -2.662615E-15   -3.238955E-14    2.325740E-13    1.373800E-11    1.731751E-10    1.373801E-11    2.325694E-13   -3.239111E-14   -2.662893E-15
        -1.194900E-16   -6.308606E-18   -2.968363E-19   -1.108223E-20   -3.219386E-22   -7.352621E-24   -1.340025E-25   -1.975996E-27   -2.381437E-29   -2.350716E-31
        -1.882538E-33
  26    -6.200218E-36   -1.461175E-33   -2.137388E-31   -2.342204E-29   -2.008830E-27   -1.361514E-25   -7.271913E-24   -3.033537E-22   -9.759832E-21   -2.391922E-19
        -4.507923E-18   -7.222144E-17   -1.328016E-15   -1.454561E-14   -3.565084E-14    5.098283E-13   -3.565192E-14   -1.454619E-14   -1.328147E-15   -7.224977E-17
        -4.514944E-18   -2.400145E-19   -9.815604E-21   -3.058591E-22   -7.352621E-24   -1.381188E-25   -2.046477E-27   -2.400214E-29   -2.210799E-31   -1.538765E-33
        -6.899968E-36
  27     2.536966E-38   -3.506700E-36   -1.239114E-33   -2.043622E-31   -2.339820E-29   -2.008060E-27   -1.321431E-25   -6.696528E-24   -2.599810E-22   -7.639875E-21
        -1.672051E-19   -2.718154E-18   -3.522094E-17   -4.791113E-16   -3.964969E-15   -1.553874E-14   -3.965035E-15   -4.791367E-16   -3.522752E-17   -2.720214E-18
        -1.675528E-19   -7.671637E-21   -2.617658E-22   -6.764343E-24   -1.340025E-25   -2.046477E-27   -2.401351E-29   -2.121480E-31   -1.318080E-33   -4.157695E-36
         2.091456E-38
  28     4.276631E-40    3.178564E-38   -2.237400E-36   -1.160516E-33   -2.042372E-31   -2.340066E-29   -1.941302E-27   -1.205429E-25   -5.652312E-24   -1.993309E-22
        -5.213231E-21   -9.915842E-20   -1.376438E-18   -1.521093E-17   -1.149355E-16   -6.647959E-16   -1.149376E-16   -1.521215E-17   -1.376848E-18   -9.925548E-20
        -5.226017E-21   -2.002961E-22   -5.698230E-24   -1.220315E-25   -1.975996E-27   -2.400214E-29   -2.121480E-31   -1.240218E-33   -2.855108E-36    2.808036E-38
         4.100397E-40
  29     2.215991E-42    3.755469E-40    3.322092E-38   -2.229848E-36   -1.236858E-33   -2.133743E-31   -2.327696E-29   -1.801033E-27   -1.024463E-25   -4.319605E-24
        -1.339624E-22   -2.997962E-21   -4.786044E-20   -5.751123E-19   -4.310680E-18   -1.983350E-17   -4.310782E-18   -5.751731E-19   -4.787832E-20   -3.001410E-21
        -1.343403E-22   -4.343825E-24   -1.034328E-25   -1.828346E-27   -2.381437E-29   -2.210799E-31   -1.318080E-33   -2.855108E-36    2.977964E-38    3.623686E-40
         2.180194E-42
  30     4.884077E-45    1.789571E-42    3.756647E-40    3.186462E-38   -3.482004E-36   -1.456567E-33   -2.280223E-31   -2.266522E-29   -1.581411E-27   -7.975401E-26
        -2.908257E-24   -7.532328E-23   -1.360309E-21   -1.773607E-20   -1.501835E-19   -8.616104E-19   -1.501876E-19   -1.773832E-20   -1.360913E-21   -7.542368E-23
        -2.917686E-24   -8.027426E-26   -1.599617E-27   -2.309396E-29   -2.350716E-31   -1.538765E-33   -4.157695E-36    2.808036E-38    3.623686E-40    1.765275E-42
         4.867233E-45
  31      0.00000        4.884318E-45    2.216590E-42    4.281620E-40    2.556961E-38   -6.153658E-36   -1.802231E-33   -2.445250E-31   -2.142173E-29   -1.303619E-27
        -5.584752E-26   -1.657510E-24   -3.335531E-23   -4.747973E-22   -4.609071E-21   -3.236794E-20   -4.609211E-21   -4.748683E-22   -3.337283E-23   -1.660079E-24
        -5.605713E-26   -1.313609E-27   -2.172082E-29   -2.504565E-31   -1.882538E-33   -6.899968E-36    2.091456E-38    4.100397E-40    2.180194E-42    4.867233E-45
          0.00000    

 CONCENTRATION WILL BE SAVED ON UNIT 1030 AT END OF TIME STEP   19, STRESS PERIOD    2


  MASS BUDGET FOR ENTIRE MODEL AT END OF TIME STEP   19, STRESS PERIOD   2
  ---------------------------------------------------------------------------------------------------

     CUMULATIVE MASS      M       RATES FOR THIS TIME STEP      M/T          PACKAGE NAME    
     ------------------                 ------------------------                     ----------------

           IN:                                      IN:
           ---                                      ---
     STORAGE-AQUEOUS =  3642008952.0099       STORAGE-AQUEOUS =     6136040.8694     MST                              
                 WEL =  7884000000.0000                   WEL =           0.0000     SSM_WEL-1                        
                 CHD =           0.0000                   CHD =           0.0000     SSM_CHD-1                        

            TOTAL IN = 11526008952.0100              TOTAL IN =     6136040.8694

          OUT:                                     OUT:
          ----                                     ----
     STORAGE-AQUEOUS =  7888230811.2749       STORAGE-AQUEOUS =        2271.9148     MST                              
                 WEL =  3637778140.7350                   WEL =     6133768.9546     SSM_WEL-1                        
                 CHD =       7.5562E-18                   CHD =           0.0000     SSM_CHD-1                        

           TOTAL OUT = 11526008952.0100             TOTAL OUT =     6136040.8694

            IN - OUT =      -1.1444E-05              IN - OUT =      -1.2852E-07

 PERCENT DISCREPANCY =          -0.00     PERCENT DISCREPANCY =          -0.00




         TIME SUMMARY AT END OF TIME STEP   19 IN STRESS PERIOD    2
                    SECONDS     MINUTES      HOURS       DAYS        YEARS
                    -----------------------------------------------------------
   TIME STEP LENGTH 2.16991E+06  36165.      602.75      25.115     6.87602E-02
 STRESS PERIOD TIME 4.12283E+07 6.87138E+05  11452.      477.18      1.3064    
         TOTAL TIME 1.20068E+08 2.00114E+06  33352.      1389.7      3.8047    


end timestep


start timestep kper="2" kstp="20" mode="normal"

 UBDSV1 SAVING  STORAGE-AQUEOUS ON UNIT   1029 AT TIME STEP     20, STRESS PERIOD      2
 UBDSV1 SAVING     FLOW-JA-FACE ON UNIT   1029 AT TIME STEP     20, STRESS PERIOD      2
 UBDSV06 SAVING  SOURCE-SINK MIX IN MODEL GWT_P06-MF6      PACKAGE GWT_P06-MF6     CONNECTED TO MODEL GWT_P06-MF6      PACKAGE SSM              ON UNIT   1029 AT TIME STEP     20, STRESS PERIOD      2
1
  CONCENTRATION IN LAYER   1 AT END OF TIME STEP  20 IN STRESS PERIOD    2
  ---------------------------------------------------------------------------

                1               2               3               4               5               6               7               8               9              10
               11              12              13              14              15              16              17              18              19              20
               21              22              23              24              25              26              27              28              29              30
               31
 ................................................................................................................................................................................................................................................................................................................................................................................................................................................................................................................
   1      0.00000        5.130648E-45    2.269123E-42    4.166688E-40    1.805339E-38   -7.879827E-36   -2.040496E-33   -2.666933E-31   -2.287002E-29   -1.370850E-27
        -5.805636E-26   -1.708438E-24   -3.419162E-23   -4.846852E-22   -4.685658E-21   -3.265769E-20   -4.685532E-21   -4.846261E-22   -3.417791E-23   -1.706442E-24
        -5.788761E-26   -1.362416E-27   -2.260539E-29   -2.612153E-31   -1.963466E-33   -7.139688E-36    2.280957E-38    4.357218E-40    2.308769E-42    5.151824E-45
          0.00000    
   2     5.130648E-45    1.828953E-42    3.689539E-40    2.652771E-38   -4.849343E-36   -1.667057E-33   -2.500746E-31   -2.431059E-29   -1.670268E-27   -8.322974E-26
        -3.005855E-24   -7.727214E-23   -1.388489E-21   -1.803432E-20   -1.521764E-19   -8.673160E-19   -1.521727E-19   -1.803244E-20   -1.388014E-21   -7.719391E-23
        -2.998244E-24   -8.278953E-26   -1.654131E-27   -2.391436E-29   -2.433189E-31   -1.585788E-33   -4.163163E-36    3.046263E-38    3.831071E-40    1.855756E-42
         5.152111E-45
   3     2.269123E-42    3.689539E-40    2.859587E-38   -3.408583E-36   -1.426910E-33   -2.348645E-31   -2.504652E-29   -1.908580E-27   -1.072715E-25   -4.477995E-24
        -1.377106E-22   -3.061357E-21   -4.865784E-20   -5.825685E-19   -4.361234E-18   -1.999546E-17   -4.361142E-18   -5.825176E-19   -4.864374E-20   -3.058662E-21
        -1.374045E-22   -4.457416E-24   -1.063932E-25   -1.883232E-27   -2.452970E-29   -2.272278E-31   -1.344349E-33   -2.759094E-36    3.224200E-38    3.832361E-40
         2.309449E-42
   4     4.166688E-40    2.652771E-38   -3.408583E-36   -1.342128E-33   -2.251437E-31   -2.522011E-29   -2.061445E-27   -1.265325E-25   -5.875058E-24   -2.053994E-22
        -5.332135E-21   -1.008588E-19   -1.396682E-18   -1.538463E-17   -1.163265E-16   -6.657956E-16   -1.163246E-16   -1.538361E-17   -1.396357E-18   -1.007827E-19
        -5.321731E-21   -2.045742E-22   -5.833884E-24   -1.251407E-25   -2.027831E-27   -2.461980E-29   -2.170501E-31   -1.258857E-33   -2.751077E-36    3.054764E-38
         4.362713E-40
   5     1.805339E-38   -4.849343E-36   -1.426910E-33   -2.251437E-31   -2.522198E-29   -2.133989E-27   -1.388990E-25   -6.973427E-24   -2.684677E-22   -7.830207E-21
        -1.703640E-19   -2.763623E-18   -3.586978E-17   -4.841771E-16   -3.937476E-15   -1.497129E-14   -3.937419E-15   -4.841553E-16   -3.586446E-17   -2.761999E-18
        -1.700795E-19   -7.802823E-21   -2.668509E-22   -6.909306E-24   -1.370767E-25   -2.095204E-27   -2.458532E-29   -2.169194E-31   -1.341974E-33   -4.136884E-36
         2.302585E-38
   6    -7.879827E-36   -1.667057E-33   -2.348645E-31   -2.522011E-29   -2.133989E-27   -1.431445E-25   -7.578893E-24   -3.136872E-22   -1.002066E-20   -2.441967E-19
        -4.593778E-18   -7.369818E-17   -1.337421E-15   -1.418768E-14   -2.307042E-14    6.468776E-13   -2.306948E-14   -1.418717E-14   -1.337310E-15   -7.367546E-17
        -4.587985E-18   -2.434797E-19   -9.969415E-21   -3.112816E-22   -7.498523E-24   -1.411260E-25   -2.094407E-27   -2.459759E-29   -2.268466E-31   -1.580929E-33
        -7.089981E-36
   7    -2.040496E-33   -2.500746E-31   -2.504652E-29   -2.061445E-27   -1.388990E-25   -7.578893E-24   -3.301722E-22   -1.131476E-20   -3.021252E-19   -6.424341E-18
        -1.218902E-16   -2.667532E-15   -3.030419E-14    3.302495E-13    1.605725E-11    1.966730E-10    1.605725E-11    3.302535E-13   -3.030264E-14   -2.667281E-15
        -1.218160E-16   -6.410644E-18   -3.008777E-19   -1.124417E-20   -3.273811E-22   -7.496438E-24   -1.369913E-25   -2.025696E-27   -2.449006E-29   -2.427320E-31
        -1.956186E-33
   8    -2.666933E-31   -2.431059E-29   -1.908580E-27   -1.265325E-25   -6.973427E-24   -3.136872E-22   -1.131476E-20   -3.242497E-19   -7.593809E-18   -1.637202E-16
        -4.067156E-15   -4.128190E-14    2.028274E-12    1.155787E-10    3.002586E-09    3.258658E-08    3.002585E-09    1.155787E-10    2.028285E-12   -4.128299E-14
        -4.066627E-15   -1.635629E-16   -7.572375E-18   -3.227164E-19   -1.124184E-20   -3.111390E-22   -6.904158E-24   -1.250057E-25   -1.880439E-27   -2.386659E-29
        -2.605117E-31
   9    -2.287002E-29   -1.670268E-27   -1.072715E-25   -5.875058E-24   -2.684677E-22   -1.002066E-20   -3.021252E-19   -7.593809E-18   -1.804874E-16   -4.964269E-15
        -3.941858E-14    5.638081E-12    4.127514E-10    1.699597E-08    4.034131E-07    4.098019E-06    4.034131E-07    1.699597E-08    4.127512E-10    5.638122E-12
        -3.942533E-14   -4.963456E-15   -1.802778E-16   -7.571455E-18   -3.007829E-19   -9.964198E-21   -2.666531E-22   -5.828179E-24   -1.062601E-25   -1.651521E-27
        -2.256046E-29
  10    -1.370850E-27   -8.322974E-26   -4.477995E-24   -2.053994E-22   -7.830207E-21   -2.441967E-19   -6.424341E-18   -1.637202E-16   -4.964269E-15   -3.552083E-14
         9.095832E-12    8.499391E-10    4.893892E-08    1.825884E-06    3.953239E-05    3.651576E-04    3.953239E-05    1.825884E-06    4.893891E-08    8.499392E-10
         9.095911E-12   -3.553300E-14   -4.963441E-15   -1.635475E-16   -6.408847E-18   -2.433686E-19   -7.798070E-21   -2.044187E-22   -4.453288E-24   -8.269691E-26
        -1.360574E-27
  11    -5.805636E-26   -3.005855E-24   -1.377106E-22   -5.332135E-21   -1.703640E-19   -4.593778E-18   -1.218902E-16   -4.067156E-15   -3.941858E-14    9.095832E-12
         1.074641E-09    8.094794E-08    4.161409E-06    1.368721E-04    2.578497E-03    2.067933E-02    2.578497E-03    1.368721E-04    4.161409E-06    8.094793E-08
         1.074642E-09    9.095914E-12   -3.942790E-14   -4.066605E-15   -1.218023E-16   -4.586747E-18   -1.700140E-19   -5.319204E-21   -1.373269E-22   -2.996245E-24
        -5.784196E-26
  12    -1.708438E-24   -7.727214E-23   -3.061357E-21   -1.008588E-19   -2.763623E-18   -7.369818E-17   -2.667532E-15   -4.128190E-14    5.638081E-12    8.499391E-10
         8.094794E-08    5.409182E-06    2.393146E-04    6.503235E-03    9.844583E-02    0.629274        9.844583E-02    6.503235E-03    2.393146E-04    5.409182E-06
         8.094793E-08    8.499394E-10    5.638130E-12   -4.128465E-14   -2.667259E-15   -7.367000E-17   -2.761558E-18   -1.007610E-19   -3.057871E-21   -7.717025E-23
        -1.705822E-24
  13    -3.419162E-23   -1.388489E-21   -4.865784E-20   -1.396682E-18   -3.586978E-17   -1.337421E-15   -3.030419E-14    2.028274E-12    4.127514E-10    4.893892E-08
         4.161409E-06    2.393146E-04    8.543138E-03    0.172653         1.81574         7.80586         1.81574        0.172653        8.543138E-03    2.393146E-04
         4.161409E-06    4.893891E-08    4.127512E-10    2.028287E-12   -3.030263E-14   -1.337291E-15   -3.586320E-17   -1.396271E-18   -4.863982E-20   -1.387877E-21
        -3.417383E-23
  14    -4.846852E-22   -1.803432E-20   -5.825685E-19   -1.538463E-17   -4.841771E-16   -1.418768E-14    3.302495E-13    1.155787E-10    1.699597E-08    1.825884E-06
         1.368721E-04    6.503235E-03    0.172653         2.21556         12.8145         31.1020         12.8145         2.21556        0.172653        6.503235E-03
         1.368721E-04    1.825884E-06    1.699597E-08    1.155787E-10    3.302539E-13   -1.418710E-14   -4.841516E-16   -1.538341E-17   -5.825074E-19   -1.803205E-20
        -4.846133E-22
  15    -4.685658E-21   -1.521764E-19   -4.361234E-18   -1.163265E-16   -3.937476E-15   -2.307042E-14    1.605725E-11    3.002586E-09    4.034131E-07    3.953239E-05
         2.578497E-03    9.844583E-02     1.81574         12.8145         37.8066         54.0358         37.8066         12.8145         1.81574        9.844583E-02
         2.578497E-03    3.953239E-05    4.034131E-07    3.002585E-09    1.605725E-11   -2.306935E-14   -3.937411E-15   -1.163244E-16   -4.361131E-18   -1.521722E-19
        -4.685517E-21
  16    -3.265769E-20   -8.673160E-19   -1.999546E-17   -6.657956E-16   -1.497129E-14    6.468776E-13    1.966730E-10    3.258658E-08    4.098019E-06    3.651576E-04
         2.067933E-02    0.629274         7.80586         31.1020         54.0358         68.7837         54.0358         31.1020         7.80586        0.629274    
         2.067933E-02    3.651576E-04    4.098019E-06    3.258658E-08    1.966730E-10    6.468776E-13   -1.497128E-14   -6.657956E-16   -1.999546E-17   -8.673161E-19
        -3.265769E-20
  17    -4.685532E-21   -1.521727E-19   -4.361142E-18   -1.163246E-16   -3.937419E-15   -2.306948E-14    1.605725E-11    3.002585E-09    4.034131E-07    3.953239E-05
         2.578497E-03    9.844583E-02     1.81574         12.8145         37.8066         54.0358         37.8066         12.8145         1.81574        9.844583E-02
         2.578497E-03    3.953239E-05    4.034131E-07    3.002586E-09    1.605725E-11   -2.307042E-14   -3.937476E-15   -1.163265E-16   -4.361234E-18   -1.521764E-19
        -4.685658E-21
  18    -4.846261E-22   -1.803244E-20   -5.825176E-19   -1.538361E-17   -4.841553E-16   -1.418717E-14    3.302535E-13    1.155787E-10    1.699597E-08    1.825884E-06
         1.368721E-04    6.503235E-03    0.172653         2.21556         12.8145         31.1020         12.8145         2.21556        0.172653        6.503235E-03
         1.368721E-04    1.825884E-06    1.699597E-08    1.155787E-10    3.302495E-13   -1.418768E-14   -4.841771E-16   -1.538463E-17   -5.825685E-19   -1.803432E-20
        -4.846852E-22
  19    -3.417791E-23   -1.388014E-21   -4.864374E-20   -1.396357E-18   -3.586446E-17   -1.337310E-15   -3.030264E-14    2.028285E-12    4.127512E-10    4.893891E-08
         4.161409E-06    2.393146E-04    8.543138E-03    0.172653         1.81574         7.80586         1.81574        0.172653        8.543138E-03    2.393146E-04
         4.161409E-06    4.893892E-08    4.127514E-10    2.028274E-12   -3.030419E-14   -1.337421E-15   -3.586978E-17   -1.396682E-18   -4.865784E-20   -1.388489E-21
        -3.419162E-23
  20    -1.706442E-24   -7.719391E-23   -3.058662E-21   -1.007827E-19   -2.761999E-18   -7.367546E-17   -2.667281E-15   -4.128299E-14    5.638122E-12    8.499392E-10
         8.094793E-08    5.409182E-06    2.393146E-04    6.503235E-03    9.844583E-02    0.629274        9.844583E-02    6.503235E-03    2.393146E-04    5.409182E-06
         8.094794E-08    8.499391E-10    5.638081E-12   -4.128190E-14   -2.667532E-15   -7.369818E-17   -2.763623E-18   -1.008588E-19   -3.061357E-21   -7.727214E-23
        -1.708438E-24
  21    -5.788761E-26   -2.998244E-24   -1.374045E-22   -5.321731E-21   -1.700795E-19   -4.587985E-18   -1.218160E-16   -4.066627E-15   -3.942533E-14    9.095911E-12
         1.074642E-09    8.094793E-08    4.161409E-06    1.368721E-04    2.578497E-03    2.067933E-02    2.578497E-03    1.368721E-04    4.161409E-06    8.094794E-08
         1.074641E-09    9.095832E-12   -3.941858E-14   -4.067156E-15   -1.218902E-16   -4.593778E-18   -1.703640E-19   -5.332135E-21   -1.377106E-22   -3.005855E-24
        -5.805636E-26
  22    -1.362416E-27   -8.278953E-26   -4.457416E-24   -2.045742E-22   -7.802823E-21   -2.434797E-19   -6.410644E-18   -1.635629E-16   -4.963456E-15   -3.553300E-14
         9.095914E-12    8.499394E-10    4.893891E-08    1.825884E-06    3.953239E-05    3.651576E-04    3.953239E-05    1.825884E-06    4.893892E-08    8.499391E-10
         9.095832E-12   -3.552083E-14   -4.964269E-15   -1.637202E-16   -6.424341E-18   -2.441967E-19   -7.830207E-21   -2.053994E-22   -4.477995E-24   -8.322974E-26
        -1.370850E-27
  23    -2.260539E-29   -1.654131E-27   -1.063932E-25   -5.833884E-24   -2.668509E-22   -9.969415E-21   -3.008777E-19   -7.572375E-18   -1.802778E-16   -4.963441E-15
        -3.942790E-14    5.638130E-12    4.127512E-10    1.699597E-08    4.034131E-07    4.098019E-06    4.034131E-07    1.699597E-08    4.127514E-10    5.638081E-12
        -3.941858E-14   -4.964269E-15   -1.804874E-16   -7.593809E-18   -3.021252E-19   -1.002066E-20   -2.684677E-22   -5.875058E-24   -1.072715E-25   -1.670268E-27
        -2.287002E-29
  24    -2.612153E-31   -2.391436E-29   -1.883232E-27   -1.251407E-25   -6.909306E-24   -3.112816E-22   -1.124417E-20   -3.227164E-19   -7.571455E-18   -1.635475E-16
        -4.066605E-15   -4.128465E-14    2.028287E-12    1.155787E-10    3.002585E-09    3.258658E-08    3.002586E-09    1.155787E-10    2.028274E-12   -4.128190E-14
        -4.067156E-15   -1.637202E-16   -7.593809E-18   -3.242497E-19   -1.131476E-20   -3.136872E-22   -6.973427E-24   -1.265325E-25   -1.908580E-27   -2.431059E-29
        -2.666933E-31
  25    -1.963466E-33   -2.433189E-31   -2.452970E-29   -2.027831E-27   -1.370767E-25   -7.498523E-24   -3.273811E-22   -1.124184E-20   -3.007829E-19   -6.408847E-18
        -1.218023E-16   -2.667259E-15   -3.030263E-14    3.302539E-13    1.605725E-11    1.966730E-10    1.605725E-11    3.302495E-13   -3.030419E-14   -2.667532E-15
        -1.218902E-16   -6.424341E-18   -3.021252E-19   -1.131476E-20   -3.301722E-22   -7.578893E-24   -1.388990E-25   -2.061445E-27   -2.504652E-29   -2.500746E-31
        -2.040496E-33
  26    -7.139688E-36   -1.585788E-33   -2.272278E-31   -2.461980E-29   -2.095204E-27   -1.411260E-25   -7.496438E-24   -3.111390E-22   -9.964198E-21   -2.433686E-19
        -4.586747E-18   -7.367000E-17   -1.337291E-15   -1.418710E-14   -2.306935E-14    6.468776E-13   -2.307042E-14   -1.418768E-14   -1.337421E-15   -7.369818E-17
        -4.593778E-18   -2.441967E-19   -1.002066E-20   -3.136872E-22   -7.578893E-24   -1.431445E-25   -2.133989E-27   -2.522011E-29   -2.348645E-31   -1.667057E-33
        -7.879827E-36
  27     2.280957E-38   -4.163163E-36   -1.344349E-33   -2.170501E-31   -2.458532E-29   -2.094407E-27   -1.369913E-25   -6.904158E-24   -2.666531E-22   -7.798070E-21
        -1.700140E-19   -2.761558E-18   -3.586320E-17   -4.841516E-16   -3.937411E-15   -1.497128E-14   -3.937476E-15   -4.841771E-16   -3.586978E-17   -2.763623E-18
        -1.703640E-19   -7.830207E-21   -2.684677E-22   -6.973427E-24   -1.388990E-25   -2.133989E-27   -2.522198E-29   -2.251437E-31   -1.426910E-33   -4.849343E-36
         1.805339E-38
  28     4.357218E-40    3.046263E-38   -2.759094E-36   -1.258857E-33   -2.169194E-31   -2.459759E-29   -2.025696E-27   -1.250057E-25   -5.828179E-24   -2.044187E-22
        -5.319204E-21   -1.007610E-19   -1.396271E-18   -1.538341E-17   -1.163244E-16   -6.657956E-16   -1.163265E-16   -1.538463E-17   -1.396682E-18   -1.008588E-19
        -5.332135E-21   -2.053994E-22   -5.875058E-24   -1.265325E-25   -2.061445E-27   -2.522011E-29   -2.251437E-31   -1.342128E-33   -3.408583E-36    2.652772E-38
         4.166688E-40
  29     2.308769E-42    3.831071E-40    3.224200E-38   -2.751077E-36   -1.341974E-33   -2.268466E-31   -2.449006E-29   -1.880439E-27   -1.062601E-25   -4.453288E-24
        -1.373269E-22   -3.057871E-21   -4.863982E-20   -5.825074E-19   -4.361131E-18   -1.999546E-17   -4.361234E-18   -5.825685E-19   -4.865784E-20   -3.061357E-21
        -1.377106E-22   -4.477995E-24   -1.072715E-25   -1.908580E-27   -2.504652E-29   -2.348645E-31   -1.426910E-33   -3.408583E-36    2.859587E-38    3.689539E-40
         2.269123E-42
  30     5.151824E-45    1.855756E-42    3.832361E-40    3.054764E-38   -4.136884E-36   -1.580929E-33   -2.427320E-31   -2.386659E-29   -1.651521E-27   -8.269691E-26
        -2.996245E-24   -7.717025E-23   -1.387877E-21   -1.803205E-20   -1.521722E-19   -8.673161E-19   -1.521764E-19   -1.803432E-20   -1.388489E-21   -7.727214E-23
        -3.005855E-24   -8.322974E-26   -1.670268E-27   -2.431059E-29   -2.500746E-31   -1.667057E-33   -4.849343E-36    2.652772E-38    3.689539E-40    1.828953E-42
         5.130648E-45
  31      0.00000        5.152111E-45    2.309449E-42    4.362713E-40    2.302585E-38   -7.089981E-36   -1.956186E-33   -2.605117E-31   -2.256046E-29   -1.360574E-27
        -5.784196E-26   -1.705822E-24   -3.417383E-23   -4.846133E-22   -4.685517E-21   -3.265769E-20   -4.685658E-21   -4.846852E-22   -3.419162E-23   -1.708438E-24
        -5.805636E-26   -1.370850E-27   -2.287002E-29   -2.666933E-31   -2.040496E-33   -7.879827E-36    1.805339E-38    4.166688E-40    2.269123E-42    5.130648E-45
          0.00000    

 CONCENTRATION WILL BE SAVED ON UNIT 1030 AT END OF TIME STEP   20, STRESS PERIOD    2


  MASS BUDGET FOR ENTIRE MODEL AT END OF TIME STEP   20, STRESS PERIOD   2
  ---------------------------------------------------------------------------------------------------

     CUMULATIVE MASS      M       RATES FOR THIS TIME STEP      M/T          PACKAGE NAME    
     ------------------                 ------------------------                     ----------------

           IN:                                      IN:
           ---                                      ---
     STORAGE-AQUEOUS =  3791314645.5896       STORAGE-AQUEOUS =     5944957.2969     MST                              
                 WEL =  7884000000.0000                   WEL =           0.0000     SSM_WEL-1                        
                 CHD =           0.0000                   CHD =           0.0000     SSM_CHD-1                        

            TOTAL IN = 11675314645.5896              TOTAL IN =     5944957.2969

          OUT:                                     OUT:
          ----                                     ----
     STORAGE-AQUEOUS =  7888282113.2008       STORAGE-AQUEOUS =        2042.7068     MST                              
                 WEL =  3787032532.3889                   WEL =     5942914.5901     SSM_WEL-1                        
                 CHD =       7.5562E-18                   CHD =           0.0000     SSM_CHD-1                        

           TOTAL OUT = 11675314645.5897             TOTAL OUT =     5944957.2969

            IN - OUT =      -1.5259E-05              IN - OUT =      -1.4156E-07

 PERCENT DISCREPANCY =          -0.00     PERCENT DISCREPANCY =          -0.00




         TIME SUMMARY AT END OF TIME STEP   20 IN STRESS PERIOD    2
                    SECONDS     MINUTES      HOURS       DAYS        YEARS
                    -----------------------------------------------------------
   TIME STEP LENGTH 2.16991E+06  36165.      602.75      25.115     6.87602E-02
 STRESS PERIOD TIME 4.33982E+07 7.23303E+05  12055.      502.29      1.3752    
         TOTAL TIME 1.22238E+08 2.03730E+06  33955.      1414.8      3.8735    


end timestep


start timestep kper="2" kstp="21" mode="normal"

 UBDSV1 SAVING  STORAGE-AQUEOUS ON UNIT   1029 AT TIME STEP     21, STRESS PERIOD      2
 UBDSV1 SAVING     FLOW-JA-FACE ON UNIT   1029 AT TIME STEP     21, STRESS PERIOD      2
 UBDSV06 SAVING  SOURCE-SINK MIX IN MODEL GWT_P06-MF6      PACKAGE GWT_P06-MF6     CONNECTED TO MODEL GWT_P06-MF6      PACKAGE SSM              ON UNIT   1029 AT TIME STEP     21, STRESS PERIOD      2
1
  CONCENTRATION IN LAYER   1 AT END OF TIME STEP  21 IN STRESS PERIOD    2
  ---------------------------------------------------------------------------

                1               2               3               4               5               6               7               8               9              10
               11              12              13              14              15              16              17              18              19              20
               21              22              23              24              25              26              27              28              29              30
               31
 ................................................................................................................................................................................................................................................................................................................................................................................................................................................................................................................
   1      0.00000        5.404009E-45    2.359323E-42    4.224288E-40    1.480182E-38   -8.938776E-36   -2.208354E-33   -2.837657E-31   -2.406828E-29   -1.430103E-27
        -6.011286E-26   -1.757926E-24   -3.502606E-23   -4.946517E-22   -4.762924E-21   -3.294889E-20   -4.762797E-21   -4.945918E-22   -3.501214E-23   -1.755894E-24
        -5.994029E-26   -1.421432E-27   -2.379455E-29   -2.780615E-31   -2.127561E-33   -8.156333E-36    1.987568E-38    4.430029E-40    2.403114E-42    5.429961E-45
          0.00000    
   2     5.404009E-45    1.893652E-42    3.751090E-40    2.473803E-38   -5.596129E-36   -1.803230E-33   -2.658415E-31   -2.557932E-29   -1.743448E-27   -8.627202E-26
        -3.096100E-24   -7.915517E-23   -1.416477E-21   -1.833365E-20   -1.541842E-19   -8.730779E-19   -1.541805E-19   -1.833175E-20   -1.415997E-21   -7.907577E-23
        -3.088345E-24   -8.582130E-26   -1.726839E-27   -2.516922E-29   -2.588093E-31   -1.718137E-33   -4.873157E-36    2.891453E-38    3.902956E-40    1.923144E-42
         5.430301E-45
   3     2.359323E-42    3.751090E-40    2.722018E-38   -4.005728E-36   -1.542288E-33   -2.493386E-31   -2.633094E-29   -1.991690E-27   -1.112243E-25   -4.615381E-24
        -1.411441E-22   -3.122192E-21   -4.944745E-20   -5.900423E-19   -4.412227E-18   -2.015577E-17   -4.412135E-18   -5.899911E-19   -4.943323E-20   -3.119467E-21
        -1.408333E-22   -4.594393E-24   -1.103243E-25   -1.965585E-27   -2.579606E-29   -2.413962E-31   -1.455991E-33   -3.323043E-36    3.108157E-38    3.904367E-40
         2.403884E-42
   4     4.224288E-40    2.473803E-38   -4.005728E-36   -1.450113E-33   -2.387807E-31   -2.648915E-29   -2.149937E-27   -1.311676E-25   -6.056168E-24   -2.105999E-22
        -5.439866E-21   -1.024865E-19   -1.416849E-18   -1.555859E-17   -1.176777E-16   -6.663632E-16   -1.176758E-16   -1.555757E-17   -1.416523E-18   -1.024098E-19
        -5.429345E-21   -2.097616E-22   -6.014143E-24   -1.297404E-25   -2.115313E-27   -2.586803E-29   -2.303688E-31   -1.363136E-33   -3.314537E-36    2.900594E-38
         4.436072E-40
   5     1.480182E-38   -5.596129E-36   -1.542288E-33   -2.387807E-31   -2.648086E-29   -2.224599E-27   -1.439408E-25   -7.187589E-24   -2.752992E-22   -7.991301E-21
        -1.732233E-19   -2.807919E-18   -3.651020E-17   -4.888380E-16   -3.906533E-15   -1.430266E-14   -3.906476E-15   -4.888161E-16   -3.650487E-17   -2.806291E-18
        -1.729368E-19   -7.963596E-21   -2.736558E-22   -7.122109E-24   -1.420717E-25   -2.184646E-27   -2.582222E-29   -2.302323E-31   -1.453492E-33   -4.845210E-36
         2.010935E-38
   6    -8.938776E-36   -1.803230E-33   -2.493386E-31   -2.648915E-29   -2.224599E-27   -1.483192E-25   -7.810662E-24   -3.216681E-22   -1.022909E-20   -2.484555E-19
        -4.674203E-18   -7.512725E-17   -1.344603E-15   -1.374686E-14   -8.575861E-15    8.008840E-13   -8.574931E-15   -1.374635E-14   -1.344492E-15   -7.510463E-17
        -4.668401E-18   -2.477335E-19   -1.017723E-20   -3.192219E-22   -7.728567E-24   -1.462485E-25   -2.183823E-27   -2.584497E-29   -2.409977E-31   -1.713015E-33
        -8.103308E-36
   7    -2.208354E-33   -2.658415E-31   -2.633094E-29   -2.149937E-27   -1.439408E-25   -7.810662E-24   -3.385671E-22   -1.155119E-20   -3.075143E-19   -6.542281E-18
        -1.242304E-16   -2.665374E-15   -2.782144E-14    4.412364E-13    1.865108E-11    2.225217E-10    1.865108E-11    4.412402E-13   -2.781989E-14   -2.665126E-15
        -1.241569E-16   -6.528567E-18   -3.062577E-19   -1.147973E-20   -3.357283E-22   -7.726433E-24   -1.419839E-25   -2.113107E-27   -2.575488E-29   -2.581954E-31
        -2.119876E-33
   8    -2.837657E-31   -2.557932E-29   -1.991690E-27   -1.311676E-25   -7.187589E-24   -3.216681E-22   -1.155119E-20   -3.300749E-19   -7.735860E-18   -1.667569E-16
        -4.037953E-15   -3.374804E-14    2.477468E-12    1.324341E-10    3.370517E-09    3.597430E-08    3.370516E-09    1.324340E-10    2.477479E-12   -3.374907E-14
        -4.037435E-15   -1.666012E-16   -7.714403E-18   -3.285302E-19   -1.147737E-20   -3.190767E-22   -7.116844E-24   -1.296017E-25   -1.962700E-27   -2.511962E-29
        -2.773256E-31
   9    -2.406828E-29   -1.743448E-27   -1.112243E-25   -6.056168E-24   -2.752992E-22   -1.022909E-20   -3.075143E-19   -7.735860E-18   -1.837796E-16   -4.909390E-15
        -2.523272E-14    6.722798E-12    4.699153E-10    1.895558E-08    4.416982E-07    4.406919E-06    4.416982E-07    1.895558E-08    4.699151E-10    6.722839E-12
        -2.523928E-14   -4.908595E-15   -1.835723E-16   -7.713482E-18   -3.061622E-19   -1.017194E-20   -2.734545E-22   -6.008312E-24   -1.101877E-25   -1.724147E-27
        -2.374795E-29
  10    -1.430103E-27   -8.627202E-26   -4.615381E-24   -2.105999E-22   -7.991301E-21   -2.484555E-19   -6.542281E-18   -1.667569E-16   -4.909390E-15   -1.808331E-14
         1.075860E-11    9.642895E-10    5.431823E-08    1.984603E-06    4.211348E-05    3.817282E-04    4.211348E-05    1.984603E-06    5.431823E-08    9.642896E-10
         1.075868E-11   -1.809520E-14   -4.908582E-15   -1.665861E-16   -6.526769E-18   -2.476216E-19   -7.958786E-21   -2.096035E-22   -4.590179E-24   -8.572637E-26
        -1.419536E-27
  11    -6.011286E-26   -3.096100E-24   -1.411441E-22   -5.439866E-21   -1.732233E-19   -4.674203E-18   -1.242304E-16   -4.037953E-15   -2.523272E-14    1.075860E-11
         1.217846E-09    8.961574E-08    4.501106E-06    1.446767E-04    2.668155E-03    2.099223E-02    2.668155E-03    1.446767E-04    4.501106E-06    8.961573E-08
         1.217847E-09    1.075868E-11   -2.524181E-14   -4.037416E-15   -1.241434E-16   -4.667162E-18   -1.728709E-19   -5.426790E-21   -1.407545E-22   -3.086308E-24
        -5.989359E-26
  12    -1.757926E-24   -7.915517E-23   -3.122192E-21   -1.024865E-19   -2.807919E-18   -7.512725E-17   -2.665374E-15   -3.374804E-14    6.722798E-12    9.642895E-10
         8.961574E-08    5.840792E-06    2.518587E-04    6.676488E-03    9.890194E-02    0.620976        9.890194E-02    6.676488E-03    2.518587E-04    5.840792E-06
         8.961573E-08    9.642897E-10    6.722846E-12   -3.375070E-14   -2.665106E-15   -7.509923E-17   -2.805850E-18   -1.023881E-19   -3.118667E-21   -7.905177E-23
        -1.755263E-24
  13    -3.502606E-23   -1.416477E-21   -4.944745E-20   -1.416849E-18   -3.651020E-17   -1.344603E-15   -2.782144E-14    2.477468E-12    4.699153E-10    5.431823E-08
         4.501106E-06    2.518587E-04    8.745093E-03    0.172240         1.77617         7.54781         1.77617        0.172240        8.745093E-03    2.518587E-04
         4.501106E-06    5.431823E-08    4.699151E-10    2.477481E-12   -2.781989E-14   -1.344473E-15   -3.650361E-17   -1.416436E-18   -4.942929E-20   -1.415859E-21
        -3.500800E-23
  14    -4.946517E-22   -1.833365E-20   -5.900423E-19   -1.555859E-17   -4.888380E-16   -1.374686E-14    4.412364E-13    1.324341E-10    1.895558E-08    1.984603E-06
         1.446767E-04    6.676488E-03    0.172240         2.15835         12.3410         29.9173         12.3410         2.15835        0.172240        6.676488E-03
         1.446767E-04    1.984603E-06    1.895558E-08    1.324340E-10    4.412407E-13   -1.374629E-14   -4.888125E-16   -1.555737E-17   -5.899808E-19   -1.833136E-20
        -4.945789E-22
  15    -4.762924E-21   -1.541842E-19   -4.412227E-18   -1.176777E-16   -3.906533E-15   -8.575861E-15    1.865108E-11    3.370517E-09    4.416982E-07    4.211348E-05
         2.668155E-03    9.890194E-02     1.77617         12.3410         36.4385         52.1128         36.4385         12.3410         1.77617        9.890194E-02
         2.668155E-03    4.211348E-05    4.416982E-07    3.370516E-09    1.865108E-11   -8.574802E-15   -3.906469E-15   -1.176755E-16   -4.412124E-18   -1.541800E-19
        -4.762782E-21
  16    -3.294889E-20   -8.730779E-19   -2.015577E-17   -6.663632E-16   -1.430266E-14    8.008840E-13    2.225217E-10    3.597430E-08    4.406919E-06    3.817282E-04
         2.099223E-02    0.620976         7.54781         29.9173         52.1128         66.5953         52.1128         29.9173         7.54781        0.620976    
         2.099223E-02    3.817282E-04    4.406919E-06    3.597430E-08    2.225217E-10    8.008840E-13   -1.430266E-14   -6.663633E-16   -2.015577E-17   -8.730779E-19
        -3.294889E-20
  17    -4.762797E-21   -1.541805E-19   -4.412135E-18   -1.176758E-16   -3.906476E-15   -8.574931E-15    1.865108E-11    3.370516E-09    4.416982E-07    4.211348E-05
         2.668155E-03    9.890194E-02     1.77617         12.3410         36.4385         52.1128         36.4385         12.3410         1.77617        9.890194E-02
         2.668155E-03    4.211348E-05    4.416982E-07    3.370517E-09    1.865108E-11   -8.575857E-15   -3.906533E-15   -1.176777E-16   -4.412227E-18   -1.541842E-19
        -4.762924E-21
  18    -4.945918E-22   -1.833175E-20   -5.899911E-19   -1.555757E-17   -4.888161E-16   -1.374635E-14    4.412402E-13    1.324340E-10    1.895558E-08    1.984603E-06
         1.446767E-04    6.676488E-03    0.172240         2.15835         12.3410         29.9173         12.3410         2.15835        0.172240        6.676488E-03
         1.446767E-04    1.984603E-06    1.895558E-08    1.324341E-10    4.412364E-13   -1.374686E-14   -4.888380E-16   -1.555859E-17   -5.900422E-19   -1.833365E-20
        -4.946517E-22
  19    -3.501214E-23   -1.415997E-21   -4.943323E-20   -1.416523E-18   -3.650487E-17   -1.344492E-15   -2.781989E-14    2.477479E-12    4.699151E-10    5.431823E-08
         4.501106E-06    2.518587E-04    8.745093E-03    0.172240         1.77617         7.54781         1.77617        0.172240        8.745093E-03    2.518587E-04
         4.501106E-06    5.431823E-08    4.699153E-10    2.477468E-12   -2.782144E-14   -1.344603E-15   -3.651020E-17   -1.416849E-18   -4.944745E-20   -1.416477E-21
        -3.502606E-23
  20    -1.755894E-24   -7.907577E-23   -3.119467E-21   -1.024098E-19   -2.806291E-18   -7.510463E-17   -2.665126E-15   -3.374907E-14    6.722839E-12    9.642896E-10
         8.961573E-08    5.840792E-06    2.518587E-04    6.676488E-03    9.890194E-02    0.620976        9.890194E-02    6.676488E-03    2.518587E-04    5.840792E-06
         8.961574E-08    9.642895E-10    6.722798E-12   -3.374804E-14   -2.665374E-15   -7.512725E-17   -2.807919E-18   -1.024865E-19   -3.122192E-21   -7.915517E-23
        -1.757926E-24
  21    -5.994029E-26   -3.088345E-24   -1.408333E-22   -5.429345E-21   -1.729368E-19   -4.668401E-18   -1.241569E-16   -4.037435E-15   -2.523928E-14    1.075868E-11
         1.217847E-09    8.961573E-08    4.501106E-06    1.446767E-04    2.668155E-03    2.099223E-02    2.668155E-03    1.446767E-04    4.501106E-06    8.961574E-08
         1.217846E-09    1.075860E-11   -2.523272E-14   -4.037953E-15   -1.242304E-16   -4.674203E-18   -1.732233E-19   -5.439866E-21   -1.411441E-22   -3.096100E-24
        -6.011286E-26
  22    -1.421432E-27   -8.582130E-26   -4.594393E-24   -2.097616E-22   -7.963596E-21   -2.477335E-19   -6.528567E-18   -1.666012E-16   -4.908595E-15   -1.809520E-14
         1.075868E-11    9.642897E-10    5.431823E-08    1.984603E-06    4.211348E-05    3.817282E-04    4.211348E-05    1.984603E-06    5.431823E-08    9.642895E-10
         1.075860E-11   -1.808331E-14   -4.909390E-15   -1.667569E-16   -6.542281E-18   -2.484555E-19   -7.991301E-21   -2.105999E-22   -4.615381E-24   -8.627202E-26
        -1.430103E-27
  23    -2.379455E-29   -1.726839E-27   -1.103243E-25   -6.014143E-24   -2.736558E-22   -1.017723E-20   -3.062577E-19   -7.714403E-18   -1.835723E-16   -4.908582E-15
        -2.524181E-14    6.722846E-12    4.699151E-10    1.895558E-08    4.416982E-07    4.406919E-06    4.416982E-07    1.895558E-08    4.699153E-10    6.722798E-12
        -2.523272E-14   -4.909390E-15   -1.837796E-16   -7.735860E-18   -3.075143E-19   -1.022909E-20   -2.752992E-22   -6.056168E-24   -1.112243E-25   -1.743448E-27
        -2.406828E-29
  24    -2.780615E-31   -2.516922E-29   -1.965585E-27   -1.297404E-25   -7.122109E-24   -3.192219E-22   -1.147973E-20   -3.285302E-19   -7.713482E-18   -1.665861E-16
        -4.037416E-15   -3.375070E-14    2.477481E-12    1.324340E-10    3.370516E-09    3.597430E-08    3.370517E-09    1.324341E-10    2.477468E-12   -3.374804E-14
        -4.037953E-15   -1.667569E-16   -7.735860E-18   -3.300749E-19   -1.155119E-20   -3.216681E-22   -7.187589E-24   -1.311676E-25   -1.991690E-27   -2.557932E-29
        -2.837657E-31
  25    -2.127561E-33   -2.588093E-31   -2.579606E-29   -2.115313E-27   -1.420717E-25   -7.728567E-24   -3.357283E-22   -1.147737E-20   -3.061622E-19   -6.526769E-18
        -1.241434E-16   -2.665106E-15   -2.781989E-14    4.412407E-13    1.865108E-11    2.225217E-10    1.865108E-11    4.412364E-13   -2.782144E-14   -2.665374E-15
        -1.242304E-16   -6.542281E-18   -3.075143E-19   -1.155119E-20   -3.385671E-22   -7.810662E-24   -1.439408E-25   -2.149937E-27   -2.633094E-29   -2.658415E-31
        -2.208354E-33
  26    -8.156333E-36   -1.718137E-33   -2.413962E-31   -2.586803E-29   -2.184646E-27   -1.462485E-25   -7.726433E-24   -3.190767E-22   -1.017194E-20   -2.476216E-19
        -4.667162E-18   -7.509923E-17   -1.344473E-15   -1.374629E-14   -8.574802E-15    8.008840E-13   -8.575857E-15   -1.374686E-14   -1.344603E-15   -7.512725E-17
        -4.674203E-18   -2.484555E-19   -1.022909E-20   -3.216681E-22   -7.810662E-24   -1.483192E-25   -2.224599E-27   -2.648915E-29   -2.493386E-31   -1.803230E-33
        -8.938776E-36
  27     1.987568E-38   -4.873157E-36   -1.455991E-33   -2.303688E-31   -2.582222E-29   -2.183823E-27   -1.419839E-25   -7.116844E-24   -2.734545E-22   -7.958786E-21
        -1.728709E-19   -2.805850E-18   -3.650361E-17   -4.888125E-16   -3.906469E-15   -1.430266E-14   -3.906533E-15   -4.888380E-16   -3.651020E-17   -2.807919E-18
        -1.732233E-19   -7.991301E-21   -2.752992E-22   -7.187589E-24   -1.439408E-25   -2.224599E-27   -2.648086E-29   -2.387807E-31   -1.542288E-33   -5.596129E-36
         1.480182E-38
  28     4.430029E-40    2.891453E-38   -3.323043E-36   -1.363136E-33   -2.302323E-31   -2.584497E-29   -2.113107E-27   -1.296017E-25   -6.008312E-24   -2.096035E-22
        -5.426790E-21   -1.023881E-19   -1.416436E-18   -1.555737E-17   -1.176755E-16   -6.663633E-16   -1.176777E-16   -1.555859E-17   -1.416849E-18   -1.024865E-19
        -5.439866E-21   -2.105999E-22   -6.056168E-24   -1.311676E-25   -2.149937E-27   -2.648915E-29   -2.387807E-31   -1.450113E-33   -4.005728E-36    2.473803E-38
         4.224288E-40
  29     2.403114E-42    3.902956E-40    3.108157E-38   -3.314537E-36   -1.453492E-33   -2.409977E-31   -2.575488E-29   -1.962700E-27   -1.101877E-25   -4.590179E-24
        -1.407545E-22   -3.118667E-21   -4.942929E-20   -5.899808E-19   -4.412124E-18   -2.015577E-17   -4.412227E-18   -5.900422E-19   -4.944745E-20   -3.122192E-21
        -1.411441E-22   -4.615381E-24   -1.112243E-25   -1.991690E-27   -2.633094E-29   -2.493386E-31   -1.542288E-33   -4.005728E-36    2.722018E-38    3.751090E-40
         2.359323E-42
  30     5.429961E-45    1.923144E-42    3.904367E-40    2.900594E-38   -4.845210E-36   -1.713015E-33   -2.581954E-31   -2.511962E-29   -1.724147E-27   -8.572637E-26
        -3.086308E-24   -7.905177E-23   -1.415859E-21   -1.833136E-20   -1.541800E-19   -8.730779E-19   -1.541842E-19   -1.833365E-20   -1.416477E-21   -7.915517E-23
        -3.096100E-24   -8.627202E-26   -1.743448E-27   -2.557932E-29   -2.658415E-31   -1.803230E-33   -5.596129E-36    2.473803E-38    3.751090E-40    1.893652E-42
         5.404009E-45
  31      0.00000        5.430301E-45    2.403884E-42    4.436072E-40    2.010935E-38   -8.103308E-36   -2.119876E-33   -2.773256E-31   -2.374795E-29   -1.419536E-27
        -5.989359E-26   -1.755263E-24   -3.500800E-23   -4.945789E-22   -4.762782E-21   -3.294889E-20   -4.762924E-21   -4.946517E-22   -3.502606E-23   -1.757926E-24
        -6.011286E-26   -1.430103E-27   -2.406828E-29   -2.837657E-31   -2.208354E-33   -8.938776E-36    1.480182E-38    4.224288E-40    2.359323E-42    5.404009E-45
          0.00000    

 CONCENTRATION WILL BE SAVED ON UNIT 1030 AT END OF TIME STEP   21, STRESS PERIOD    2


  MASS BUDGET FOR ENTIRE MODEL AT END OF TIME STEP   21, STRESS PERIOD   2
  ---------------------------------------------------------------------------------------------------

     CUMULATIVE MASS      M       RATES FOR THIS TIME STEP      M/T          PACKAGE NAME    
     ------------------                 ------------------------                     ----------------

           IN:                                      IN:
           ---                                      ---
     STORAGE-AQUEOUS =  3935866036.9320       STORAGE-AQUEOUS =     5755653.5731     MST                              
                 WEL =  7884000000.0000                   WEL =           0.0000     SSM_WEL-1                        
                 CHD =           0.0000                   CHD =           0.0000     SSM_CHD-1                        

            TOTAL IN = 11819866036.9320              TOTAL IN =     5755653.5731

          OUT:                                     OUT:
          ----                                     ----
     STORAGE-AQUEOUS =  7888327862.7023       STORAGE-AQUEOUS =        1821.6240     MST                              
                 WEL =  3931538174.2297                   WEL =     5753831.9491     SSM_WEL-1                        
                 CHD =       7.5562E-18                   CHD =           0.0000     SSM_CHD-1                        

           TOTAL OUT = 11819866036.9320             TOTAL OUT =     5755653.5731

            IN - OUT =      -1.9073E-05              IN - OUT =      -1.3784E-07

 PERCENT DISCREPANCY =          -0.00     PERCENT DISCREPANCY =          -0.00




         TIME SUMMARY AT END OF TIME STEP   21 IN STRESS PERIOD    2
                    SECONDS     MINUTES      HOURS       DAYS        YEARS
                    -----------------------------------------------------------
   TIME STEP LENGTH 2.16991E+06  36165.      602.75      25.115     6.87602E-02
 STRESS PERIOD TIME 4.55681E+07 7.59468E+05  12658.      527.41      1.4440    
         TOTAL TIME 1.24408E+08 2.07347E+06  34558.      1439.9      3.9423    


end timestep


start timestep kper="2" kstp="22" mode="normal"

 UBDSV1 SAVING  STORAGE-AQUEOUS ON UNIT   1029 AT TIME STEP     22, STRESS PERIOD      2
 UBDSV1 SAVING     FLOW-JA-FACE ON UNIT   1029 AT TIME STEP     22, STRESS PERIOD      2
 UBDSV06 SAVING  SOURCE-SINK MIX IN MODEL GWT_P06-MF6      PACKAGE GWT_P06-MF6     CONNECTED TO MODEL GWT_P06-MF6      PACKAGE SSM              ON UNIT   1029 AT TIME STEP     22, STRESS PERIOD      2
1
  CONCENTRATION IN LAYER   1 AT END OF TIME STEP  22 IN STRESS PERIOD    2
  ---------------------------------------------------------------------------

                1               2               3               4               5               6               7               8               9              10
               11              12              13              14              15              16              17              18              19              20
               21              22              23              24              25              26              27              28              29              30
               31
 ................................................................................................................................................................................................................................................................................................................................................................................................................................................................................................................
   1      0.00000        5.687442E-45    2.450619E-42    4.272065E-40    1.112950E-38   -1.008162E-35   -2.386607E-33   -3.017087E-31   -2.531730E-29   -1.491425E-27
        -6.222792E-26   -1.808564E-24   -3.587637E-23   -5.047692E-22   -4.841016E-21   -3.324157E-20   -4.840887E-21   -5.047085E-22   -3.586224E-23   -1.806495E-24
        -6.205146E-26   -1.482512E-27   -2.503421E-29   -2.957704E-31   -2.301899E-33   -9.254877E-36    1.653838E-38    4.493984E-40    2.498869E-42    5.718648E-45
          0.00000    
   2     5.687442E-45    1.959282E-42    3.807738E-40    2.269312E-38   -6.401331E-36   -1.947673E-33   -2.824040E-31   -2.690197E-29   -1.819229E-27   -8.940303E-26
        -3.188459E-24   -8.107323E-23   -1.444882E-21   -1.863635E-20   -1.562113E-19   -8.788945E-19   -1.562075E-19   -1.863444E-20   -1.444397E-21   -8.099265E-23
        -3.180557E-24   -8.894161E-26   -1.802136E-27   -2.647760E-29   -2.750858E-31   -1.858604E-33   -5.639894E-36    2.712369E-38    3.970551E-40    1.991658E-42
         5.719048E-45
   3     2.450619E-42    3.807738E-40    2.563795E-38   -4.649098E-36   -1.664533E-33   -2.645305E-31   -2.766947E-29   -2.077759E-27   -1.152940E-25   -4.756038E-24
        -1.446414E-22   -3.183928E-21   -5.024731E-20   -5.975947E-19   -4.463733E-18   -2.031415E-17   -4.463641E-18   -5.975433E-19   -5.023298E-20   -3.181172E-21
        -1.443259E-22   -4.734635E-24   -1.143717E-25   -2.050877E-27   -2.711599E-29   -2.562721E-31   -1.574355E-33   -3.931748E-36    2.972547E-38    3.972092E-40
         2.499737E-42
   4     4.272065E-40    2.269312E-38   -4.649098E-36   -1.564468E-33   -2.530852E-31   -2.781102E-29   -2.241560E-27   -1.359398E-25   -6.241634E-24   -2.158989E-22
        -5.549237E-21   -1.041391E-19   -1.437344E-18   -1.573372E-17   -1.189922E-16   -6.664339E-16   -1.189903E-16   -1.573269E-17   -1.437016E-18   -1.040619E-19
        -5.538598E-21   -2.150474E-22   -6.198746E-24   -1.344765E-25   -2.205899E-27   -2.716849E-29   -2.443443E-31   -1.473641E-33   -3.922728E-36    2.722191E-38
         4.500616E-40
   5     1.112950E-38   -6.401331E-36   -1.664533E-33   -2.530852E-31   -2.779189E-29   -2.318396E-27   -1.491313E-25   -7.406922E-24   -2.822624E-22   -8.154964E-21
        -1.761316E-19   -2.853077E-18   -3.714702E-17   -4.930625E-16   -3.876861E-15   -1.352096E-14   -3.876804E-15   -4.930405E-16   -3.714167E-17   -2.851446E-18
        -1.758432E-19   -8.126938E-21   -2.805921E-22   -7.340062E-24   -1.472144E-25   -2.277247E-27   -2.711062E-29   -2.442018E-31   -1.571726E-33   -5.610192E-36
         1.679057E-38
   6    -1.008162E-35   -1.947673E-33   -2.645305E-31   -2.781102E-29   -2.318396E-27   -1.536462E-25   -8.048029E-24   -3.298044E-22   -1.044097E-20   -2.527925E-19
        -4.756146E-18   -7.653088E-17   -1.349371E-15   -1.320860E-14    7.967325E-15    9.734322E-13    7.968238E-15   -1.320809E-14   -1.349260E-15   -7.650836E-17
        -4.750336E-18   -2.520654E-19   -1.038848E-20   -3.273170E-22   -7.964181E-24   -1.515223E-25   -2.276396E-27   -2.714454E-29   -2.558556E-31   -1.853207E-33
        -9.198354E-36
   7    -2.386607E-33   -2.824040E-31   -2.766947E-29   -2.241560E-27   -1.491313E-25   -8.048029E-24   -3.471258E-22   -1.179160E-20   -3.130052E-19   -6.662293E-18
        -1.265000E-16   -2.655562E-15   -2.489317E-14    5.669316E-13    2.154246E-11    2.508649E-10    2.154246E-11    5.669353E-13   -2.489162E-14   -2.655317E-15
        -1.264271E-16   -6.648563E-18   -3.117396E-19   -1.171926E-20   -3.442389E-22   -7.961998E-24   -1.471242E-25   -2.203620E-27   -2.707321E-29   -2.744439E-31
        -2.293791E-33
   8    -3.017087E-31   -2.690197E-29   -2.077759E-27   -1.359398E-25   -7.406922E-24   -3.298044E-22   -1.179160E-20   -3.360110E-19   -7.880278E-18   -1.696785E-16
        -3.997984E-15   -2.496886E-14    2.984106E-12    1.511104E-10    3.770587E-09    3.958832E-08    3.770587E-09    1.511103E-10    2.984116E-12   -2.496983E-14
        -3.997469E-15   -1.695245E-16   -7.858799E-18   -3.344551E-19   -1.171687E-20   -3.271692E-22   -7.334677E-24   -1.343340E-25   -2.047899E-27   -2.642610E-29
        -2.950011E-31
   9    -2.531730E-29   -1.819229E-27   -1.152940E-25   -6.241634E-24   -2.822624E-22   -1.044097E-20   -3.130052E-19   -7.880278E-18   -1.869404E-16   -4.852324E-15
        -8.777040E-15    7.942712E-12    5.329394E-10    2.107016E-08    4.821342E-07    4.726397E-06    4.821342E-07    2.107016E-08    5.329392E-10    7.942751E-12
        -8.783434E-15   -4.851540E-15   -1.867354E-16   -7.857878E-18   -3.116435E-19   -1.038313E-20   -2.803874E-22   -6.192788E-24   -1.142315E-25   -1.799360E-27
        -2.498589E-29
  10    -1.491425E-27   -8.940303E-26   -4.756038E-24   -2.158989E-22   -8.154964E-21   -2.527925E-19   -6.662293E-18   -1.696785E-16   -4.852324E-15    2.063980E-15
         1.262582E-11    1.089956E-09    6.009014E-08    2.150773E-06    4.475117E-05    3.982490E-04    4.475117E-05    2.150773E-06    6.009013E-08    1.089956E-09
         1.262590E-11    2.052489E-15   -4.851525E-15   -1.695095E-16   -6.646765E-18   -2.519528E-19   -8.122071E-21   -2.148867E-22   -4.730336E-24   -8.884434E-26
        -1.480560E-27
  11    -6.222792E-26   -3.188459E-24   -1.446414E-22   -5.549237E-21   -1.761316E-19   -4.756146E-18   -1.265000E-16   -3.997984E-15   -8.777040E-15    1.262582E-11
         1.375048E-09    9.888799E-08    4.854590E-06    1.525668E-04    2.756010E-03    2.128402E-02    2.756010E-03    1.525668E-04    4.854590E-06    9.888798E-08
         1.375048E-09    1.262590E-11   -8.785930E-15   -3.997450E-15   -1.264137E-16   -4.749097E-18   -1.757768E-19   -5.536016E-21   -1.442459E-22   -3.178482E-24
        -6.200370E-26
  12    -1.808564E-24   -8.107323E-23   -3.183928E-21   -1.041391E-19   -2.853077E-18   -7.653088E-17   -2.655562E-15   -2.496886E-14    7.942712E-12    1.089956E-09
         9.888799E-08    6.288928E-06    2.644545E-04    6.843145E-03    9.926361E-02    0.612552        9.926361E-02    6.843145E-03    2.644545E-04    6.288929E-06
         9.888798E-08    1.089956E-09    7.942758E-12   -2.497144E-14   -2.655297E-15   -7.650301E-17   -2.851004E-18   -1.040400E-19   -3.180364E-21   -8.096831E-23
        -1.805853E-24
  13    -3.587637E-23   -1.444882E-21   -5.024731E-20   -1.437344E-18   -3.714702E-17   -1.349371E-15   -2.489317E-14    2.984106E-12    5.329394E-10    6.009014E-08
         4.854590E-06    2.644545E-04    8.937522E-03    0.171683         1.73710         7.29894         1.73710        0.171683        8.937522E-03    2.644545E-04
         4.854590E-06    6.009013E-08    5.329392E-10    2.984118E-12   -2.489161E-14   -1.349241E-15   -3.714042E-17   -1.436930E-18   -5.022900E-20   -1.444257E-21
        -3.585805E-23
  14    -5.047692E-22   -1.863635E-20   -5.975947E-19   -1.573372E-17   -4.930625E-16   -1.320860E-14    5.669316E-13    1.511104E-10    2.107016E-08    2.150773E-06
         1.525668E-04    6.843145E-03    0.171683         2.10233         11.8868         28.7790         11.8868         2.10233        0.171683        6.843145E-03
         1.525668E-04    2.150773E-06    2.107016E-08    1.511103E-10    5.669358E-13   -1.320802E-14   -4.930368E-16   -1.573250E-17   -5.975330E-19   -1.863404E-20
        -5.046955E-22
  15    -4.841016E-21   -1.562113E-19   -4.463733E-18   -1.189922E-16   -3.876861E-15    7.967325E-15    2.154246E-11    3.770587E-09    4.821342E-07    4.475117E-05
         2.756010E-03    9.926361E-02     1.73710         11.8868         35.1184         50.2457         35.1184         11.8868         1.73710        9.926361E-02
         2.756010E-03    4.475117E-05    4.821342E-07    3.770587E-09    2.154246E-11    7.968365E-15   -3.876796E-15   -1.189901E-16   -4.463630E-18   -1.562071E-19
        -4.840872E-21
  16    -3.324157E-20   -8.788945E-19   -2.031415E-17   -6.664339E-16   -1.352096E-14    9.734322E-13    2.508649E-10    3.958832E-08    4.726397E-06    3.982490E-04
         2.128402E-02    0.612552         7.29894         28.7790         50.2457         64.4345         50.2457         28.7790         7.29894        0.612552    
         2.128402E-02    3.982490E-04    4.726397E-06    3.958832E-08    2.508649E-10    9.734322E-13   -1.352096E-14   -6.664340E-16   -2.031415E-17   -8.788945E-19
        -3.324157E-20
  17    -4.840887E-21   -1.562075E-19   -4.463641E-18   -1.189903E-16   -3.876804E-15    7.968238E-15    2.154246E-11    3.770587E-09    4.821342E-07    4.475117E-05
         2.756010E-03    9.926361E-02     1.73710         11.8868         35.1184         50.2457         35.1184         11.8868         1.73710        9.926361E-02
         2.756010E-03    4.475117E-05    4.821342E-07    3.770587E-09    2.154246E-11    7.967329E-15   -3.876860E-15   -1.189922E-16   -4.463733E-18   -1.562113E-19
        -4.841016E-21
  18    -5.047085E-22   -1.863444E-20   -5.975433E-19   -1.573269E-17   -4.930405E-16   -1.320809E-14    5.669353E-13    1.511103E-10    2.107016E-08    2.150773E-06
         1.525668E-04    6.843145E-03    0.171683         2.10233         11.8868         28.7790         11.8868         2.10233        0.171683        6.843145E-03
         1.525668E-04    2.150773E-06    2.107016E-08    1.511104E-10    5.669316E-13   -1.320860E-14   -4.930624E-16   -1.573372E-17   -5.975947E-19   -1.863635E-20
        -5.047692E-22
  19    -3.586224E-23   -1.444397E-21   -5.023298E-20   -1.437016E-18   -3.714167E-17   -1.349260E-15   -2.489162E-14    2.984116E-12    5.329392E-10    6.009013E-08
         4.854590E-06    2.644545E-04    8.937522E-03    0.171683         1.73710         7.29894         1.73710        0.171683        8.937522E-03    2.644545E-04
         4.854590E-06    6.009014E-08    5.329394E-10    2.984106E-12   -2.489317E-14   -1.349371E-15   -3.714702E-17   -1.437344E-18   -5.024731E-20   -1.444882E-21
        -3.587637E-23
  20    -1.806495E-24   -8.099265E-23   -3.181172E-21   -1.040619E-19   -2.851446E-18   -7.650836E-17   -2.655317E-15   -2.496983E-14    7.942751E-12    1.089956E-09
         9.888798E-08    6.288929E-06    2.644545E-04    6.843145E-03    9.926361E-02    0.612552        9.926361E-02    6.843145E-03    2.644545E-04    6.288928E-06
         9.888799E-08    1.089956E-09    7.942712E-12   -2.496886E-14   -2.655562E-15   -7.653088E-17   -2.853077E-18   -1.041391E-19   -3.183928E-21   -8.107323E-23
        -1.808564E-24
  21    -6.205146E-26   -3.180557E-24   -1.443259E-22   -5.538598E-21   -1.758432E-19   -4.750336E-18   -1.264271E-16   -3.997469E-15   -8.783434E-15    1.262590E-11
         1.375048E-09    9.888798E-08    4.854590E-06    1.525668E-04    2.756010E-03    2.128402E-02    2.756010E-03    1.525668E-04    4.854590E-06    9.888799E-08
         1.375048E-09    1.262582E-11   -8.777040E-15   -3.997984E-15   -1.265000E-16   -4.756146E-18   -1.761316E-19   -5.549237E-21   -1.446414E-22   -3.188459E-24
        -6.222792E-26
  22    -1.482512E-27   -8.894161E-26   -4.734635E-24   -2.150474E-22   -8.126938E-21   -2.520654E-19   -6.648563E-18   -1.695245E-16   -4.851540E-15    2.052489E-15
         1.262590E-11    1.089956E-09    6.009013E-08    2.150773E-06    4.475117E-05    3.982490E-04    4.475117E-05    2.150773E-06    6.009014E-08    1.089956E-09
         1.262582E-11    2.063980E-15   -4.852324E-15   -1.696785E-16   -6.662293E-18   -2.527925E-19   -8.154964E-21   -2.158989E-22   -4.756038E-24   -8.940303E-26
        -1.491425E-27
  23    -2.503421E-29   -1.802136E-27   -1.143717E-25   -6.198746E-24   -2.805921E-22   -1.038848E-20   -3.117396E-19   -7.858799E-18   -1.867354E-16   -4.851525E-15
        -8.785930E-15    7.942758E-12    5.329392E-10    2.107016E-08    4.821342E-07    4.726397E-06    4.821342E-07    2.107016E-08    5.329394E-10    7.942712E-12
        -8.777040E-15   -4.852324E-15   -1.869404E-16   -7.880278E-18   -3.130052E-19   -1.044097E-20   -2.822624E-22   -6.241634E-24   -1.152940E-25   -1.819229E-27
        -2.531730E-29
  24    -2.957704E-31   -2.647760E-29   -2.050877E-27   -1.344765E-25   -7.340062E-24   -3.273170E-22   -1.171926E-20   -3.344551E-19   -7.857878E-18   -1.695095E-16
        -3.997450E-15   -2.497144E-14    2.984118E-12    1.511103E-10    3.770587E-09    3.958832E-08    3.770587E-09    1.511104E-10    2.984106E-12   -2.496886E-14
        -3.997984E-15   -1.696785E-16   -7.880278E-18   -3.360110E-19   -1.179160E-20   -3.298044E-22   -7.406922E-24   -1.359398E-25   -2.077759E-27   -2.690197E-29
        -3.017087E-31
  25    -2.301899E-33   -2.750858E-31   -2.711599E-29   -2.205899E-27   -1.472144E-25   -7.964181E-24   -3.442389E-22   -1.171687E-20   -3.116435E-19   -6.646765E-18
        -1.264137E-16   -2.655297E-15   -2.489161E-14    5.669358E-13    2.154246E-11    2.508649E-10    2.154246E-11    5.669316E-13   -2.489317E-14   -2.655562E-15
        -1.265000E-16   -6.662293E-18   -3.130052E-19   -1.179160E-20   -3.471258E-22   -8.048028E-24   -1.491313E-25   -2.241560E-27   -2.766947E-29   -2.824040E-31
        -2.386607E-33
  26    -9.254877E-36   -1.858604E-33   -2.562721E-31   -2.716849E-29   -2.277247E-27   -1.515223E-25   -7.961998E-24   -3.271692E-22   -1.038313E-20   -2.519528E-19
        -4.749097E-18   -7.650301E-17   -1.349241E-15   -1.320802E-14    7.968365E-15    9.734322E-13    7.967329E-15   -1.320860E-14   -1.349371E-15   -7.653088E-17
        -4.756146E-18   -2.527925E-19   -1.044097E-20   -3.298044E-22   -8.048028E-24   -1.536462E-25   -2.318396E-27   -2.781102E-29   -2.645305E-31   -1.947673E-33
        -1.008162E-35
  27     1.653838E-38   -5.639894E-36   -1.574355E-33   -2.443443E-31   -2.711062E-29   -2.276396E-27   -1.471242E-25   -7.334677E-24   -2.803874E-22   -8.122071E-21
        -1.757768E-19   -2.851004E-18   -3.714042E-17   -4.930368E-16   -3.876796E-15   -1.352096E-14   -3.876860E-15   -4.930624E-16   -3.714702E-17   -2.853077E-18
        -1.761316E-19   -8.154964E-21   -2.822624E-22   -7.406922E-24   -1.491313E-25   -2.318396E-27   -2.779189E-29   -2.530852E-31   -1.664533E-33   -6.401331E-36
         1.112950E-38
  28     4.493984E-40    2.712369E-38   -3.931748E-36   -1.473641E-33   -2.442018E-31   -2.714454E-29   -2.203620E-27   -1.343340E-25   -6.192788E-24   -2.148867E-22
        -5.536016E-21   -1.040400E-19   -1.436930E-18   -1.573250E-17   -1.189901E-16   -6.664340E-16   -1.189922E-16   -1.573372E-17   -1.437344E-18   -1.041391E-19
        -5.549237E-21   -2.158989E-22   -6.241634E-24   -1.359398E-25   -2.241560E-27   -2.781102E-29   -2.530852E-31   -1.564468E-33   -4.649098E-36    2.269313E-38
         4.272065E-40
  29     2.498869E-42    3.970551E-40    2.972547E-38   -3.922728E-36   -1.571726E-33   -2.558556E-31   -2.707321E-29   -2.047899E-27   -1.142315E-25   -4.730336E-24
        -1.442459E-22   -3.180364E-21   -5.022900E-20   -5.975330E-19   -4.463630E-18   -2.031415E-17   -4.463733E-18   -5.975947E-19   -5.024731E-20   -3.183928E-21
        -1.446414E-22   -4.756038E-24   -1.152940E-25   -2.077759E-27   -2.766947E-29   -2.645305E-31   -1.664533E-33   -4.649098E-36    2.563795E-38    3.807738E-40
         2.450619E-42
  30     5.718648E-45    1.991658E-42    3.972092E-40    2.722191E-38   -5.610192E-36   -1.853207E-33   -2.744439E-31   -2.642610E-29   -1.799360E-27   -8.884434E-26
        -3.178482E-24   -8.096831E-23   -1.444257E-21   -1.863404E-20   -1.562071E-19   -8.788945E-19   -1.562113E-19   -1.863635E-20   -1.444882E-21   -8.107323E-23
        -3.188459E-24   -8.940303E-26   -1.819229E-27   -2.690197E-29   -2.824040E-31   -1.947673E-33   -6.401331E-36    2.269313E-38    3.807738E-40    1.959282E-42
         5.687442E-45
  31      0.00000        5.719048E-45    2.499737E-42    4.500616E-40    1.679057E-38   -9.198354E-36   -2.293791E-33   -2.950011E-31   -2.498589E-29   -1.480560E-27
        -6.200370E-26   -1.805853E-24   -3.585805E-23   -5.046955E-22   -4.840872E-21   -3.324157E-20   -4.841016E-21   -5.047692E-22   -3.587637E-23   -1.808564E-24
        -6.222792E-26   -1.491425E-27   -2.531730E-29   -3.017087E-31   -2.386607E-33   -1.008162E-35    1.112950E-38    4.272065E-40    2.450619E-42    5.687442E-45
          0.00000    

 CONCENTRATION WILL BE SAVED ON UNIT 1030 AT END OF TIME STEP   22, STRESS PERIOD    2


  MASS BUDGET FOR ENTIRE MODEL AT END OF TIME STEP   22, STRESS PERIOD   2
  ---------------------------------------------------------------------------------------------------

     CUMULATIVE MASS      M       RATES FOR THIS TIME STEP      M/T          PACKAGE NAME    
     ------------------                 ------------------------                     ----------------

           IN:                                      IN:
           ---                                      ---
     STORAGE-AQUEOUS =  4075723293.4009       STORAGE-AQUEOUS =     5568745.5544     MST                              
                 WEL =  7884000000.0000                   WEL =           0.0000     SSM_WEL-1                        
                 CHD =           0.0000                   CHD =           0.0000     SSM_CHD-1                        

            TOTAL IN = 11959723293.4009              TOTAL IN =     5568745.5544

          OUT:                                     OUT:
          ----                                     ----
     STORAGE-AQUEOUS =  7888368261.7413       STORAGE-AQUEOUS =        1608.5827     MST                              
                 WEL =  4071355031.6597                   WEL =     5567136.9716     SSM_WEL-1                        
                 CHD =       7.5562E-18                   CHD =           0.0000     SSM_CHD-1                        

           TOTAL OUT = 11959723293.4009             TOTAL OUT =     5568745.5544

            IN - OUT =      -2.2888E-05              IN - OUT =      -1.2573E-07

 PERCENT DISCREPANCY =          -0.00     PERCENT DISCREPANCY =          -0.00




         TIME SUMMARY AT END OF TIME STEP   22 IN STRESS PERIOD    2
                    SECONDS     MINUTES      HOURS       DAYS        YEARS
                    -----------------------------------------------------------
   TIME STEP LENGTH 2.16991E+06  36165.      602.75      25.115     6.87602E-02
 STRESS PERIOD TIME 4.77380E+07 7.95633E+05  13261.      552.52      1.5127    
         TOTAL TIME 1.26578E+08 2.10963E+06  35161.      1465.0      4.0110    


end timestep


start timestep kper="2" kstp="23" mode="normal"

 UBDSV1 SAVING  STORAGE-AQUEOUS ON UNIT   1029 AT TIME STEP     23, STRESS PERIOD      2
 UBDSV1 SAVING     FLOW-JA-FACE ON UNIT   1029 AT TIME STEP     23, STRESS PERIOD      2
 UBDSV06 SAVING  SOURCE-SINK MIX IN MODEL GWT_P06-MF6      PACKAGE GWT_P06-MF6     CONNECTED TO MODEL GWT_P06-MF6      PACKAGE SSM              ON UNIT   1029 AT TIME STEP     23, STRESS PERIOD      2
1
  CONCENTRATION IN LAYER   1 AT END OF TIME STEP  23 IN STRESS PERIOD    2
  ---------------------------------------------------------------------------

                1               2               3               4               5               6               7               8               9              10
               11              12              13              14              15              16              17              18              19              20
               21              22              23              24              25              26              27              28              29              30
               31
 ................................................................................................................................................................................................................................................................................................................................................................................................................................................................................................................
   1      0.00000        5.981053E-45    2.542813E-42    4.308806E-40    7.004257E-39   -1.131338E-35   -2.575770E-33   -3.205581E-31   -2.661879E-29   -1.554874E-27
        -6.440284E-26   -1.860372E-24   -3.674277E-23   -5.150390E-22   -4.919940E-21   -3.353575E-20   -4.919810E-21   -5.149775E-22   -3.672843E-23   -1.858265E-24
        -6.422241E-26   -1.545713E-27   -2.632609E-29   -3.143780E-31   -2.486992E-33   -1.044027E-35    1.276631E-38    4.547918E-40    2.595854E-42    6.018025E-45
          0.00000    
   2     5.981053E-45    2.025744E-42    3.858835E-40    2.037378E-38   -7.268382E-36   -2.100792E-33   -2.997948E-31   -2.828039E-29   -1.897682E-27   -9.262477E-26
        -3.282966E-24   -8.302679E-23   -1.473710E-21   -1.894245E-20   -1.582578E-19   -8.847639E-19   -1.582540E-19   -1.894052E-20   -1.473218E-21   -8.294503E-23
        -3.274916E-24   -9.215245E-26   -1.880095E-27   -2.784134E-29   -2.921811E-31   -2.007590E-33   -6.466746E-36    2.507146E-38    4.033242E-40    2.061207E-42
         6.018492E-45
   3     2.542813E-42    3.858835E-40    2.383374E-38   -5.341369E-36   -1.793977E-33   -2.804697E-31   -2.906395E-29   -2.166870E-27   -1.194830E-25   -4.900024E-24
        -1.482036E-22   -3.246578E-21   -5.105756E-20   -6.052261E-19   -4.515721E-18   -2.047028E-17   -4.515628E-18   -6.051743E-19   -5.104312E-20   -3.243792E-21
        -1.478833E-22   -4.878200E-24   -1.185381E-25   -2.139194E-27   -2.849133E-29   -2.718844E-31   -1.699767E-33   -4.587830E-36    2.815874E-38    4.034922E-40
         2.596829E-42
   4     4.308806E-40    2.037378E-38   -5.341369E-36   -1.685498E-33   -2.680844E-31   -2.918753E-29   -2.336401E-27   -1.408522E-25   -6.431535E-24   -2.212980E-22
        -5.660277E-21   -1.058171E-19   -1.458162E-18   -1.590965E-17   -1.202619E-16   -6.659361E-16   -1.202600E-16   -1.590862E-17   -1.457833E-18   -1.057394E-19
        -5.649520E-21   -2.204331E-22   -6.387771E-24   -1.393521E-25   -2.299679E-27   -2.852297E-29   -2.590034E-31   -1.590672E-33   -4.578269E-36    2.517690E-38
         4.555184E-40
   5     7.004257E-39   -7.268382E-36   -1.793977E-33   -2.680844E-31   -2.915684E-29   -2.415469E-27   -1.544739E-25   -7.631517E-24   -2.893593E-22   -8.321246E-21
        -1.790898E-19   -2.899068E-18   -3.777823E-17   -4.967772E-16   -3.834069E-15   -1.261323E-14   -3.834012E-15   -4.967552E-16   -3.777287E-17   -2.897433E-18
        -1.787994E-19   -8.292897E-21   -2.876617E-22   -7.563257E-24   -1.525082E-25   -2.373094E-27   -2.845228E-29   -2.588545E-31   -1.697002E-33   -6.435197E-36
         1.303820E-38
   6    -1.131338E-35   -2.100792E-33   -2.804697E-31   -2.918753E-29   -2.415469E-27   -1.591290E-25   -8.291093E-24   -3.380983E-22   -1.065636E-20   -2.572087E-19
        -4.839526E-18   -7.790248E-17   -1.351372E-15   -1.256063E-14    2.673158E-14    1.166187E-12    2.673247E-14   -1.256012E-14   -1.351261E-15   -7.788006E-17
        -4.833709E-18   -2.564766E-19   -1.060325E-20   -3.355695E-22   -8.205466E-24   -1.569508E-25   -2.372216E-27   -2.849809E-29   -2.714493E-31   -2.001906E-33
        -1.038007E-35
   7    -2.575770E-33   -2.997948E-31   -2.906395E-29   -2.336401E-27   -1.544739E-25   -8.291093E-24   -3.558509E-22   -1.203607E-20   -3.185994E-19   -6.784229E-18
        -1.286900E-16   -2.637575E-15   -2.146496E-14    7.088305E-13    2.475528E-11    2.818483E-10    2.475527E-11    7.088342E-13   -2.146342E-14   -2.637332E-15
        -1.286178E-16   -6.770486E-18   -3.173248E-19   -1.196284E-20   -3.529153E-22   -8.203233E-24   -1.524155E-25   -2.297326E-27   -2.844692E-29   -2.915101E-31
        -2.478442E-33
   8    -3.205581E-31   -2.828039E-29   -2.166870E-27   -1.408522E-25   -7.631517E-24   -3.380983E-22   -1.203607E-20   -3.420596E-19   -8.026865E-18   -1.724687E-16
        -3.950733E-15   -1.479497E-14    3.553692E-12    1.717379E-10    4.204310E-09    4.343376E-08    4.204310E-09    1.717379E-10    3.553702E-12   -1.479589E-14
        -3.950228E-15   -1.723163E-16   -8.005367E-18   -3.404925E-19   -1.196043E-20   -3.354190E-22   -7.557751E-24   -1.392057E-25   -2.136120E-27   -2.778789E-29
        -3.135740E-31
   9    -2.661879E-29   -1.897682E-27   -1.194830E-25   -6.431535E-24   -2.893593E-22   -1.065636E-20   -3.185994E-19   -8.026865E-18   -1.899447E-16   -4.774119E-15
         1.008718E-14    9.310261E-12    6.022023E-10    2.334538E-08    5.247375E-07    5.056158E-06    5.247375E-07    2.334538E-08    6.022022E-10    9.310299E-12
         1.008102E-14   -4.773354E-15   -1.897420E-16   -8.004445E-18   -3.172280E-19   -1.059783E-20   -2.874535E-22   -6.381684E-24   -1.183942E-25   -1.877233E-27
        -2.627600E-29
  10    -1.554874E-27   -9.262477E-26   -4.900024E-24   -2.212980E-22   -8.321246E-21   -2.572087E-19   -6.784229E-18   -1.724687E-16   -4.774119E-15    2.505306E-14
         1.471594E-11    1.227619E-09    6.626580E-08    2.324336E-06    4.744174E-05    4.146966E-04    4.744174E-05    2.324336E-06    6.626580E-08    1.227619E-09
         1.471601E-11    2.504195E-14   -4.773341E-15   -1.723016E-16   -6.768687E-18   -2.563632E-19   -8.287974E-21   -2.202699E-22   -4.873813E-24   -9.205278E-26
        -1.543704E-27
  11    -6.440284E-26   -3.282966E-24   -1.482036E-22   -5.660277E-21   -1.790898E-19   -4.839526E-18   -1.286900E-16   -3.950733E-15    1.008718E-14    1.471594E-11
         1.547066E-09    1.087791E-07    5.221570E-06    1.605288E-04    2.841967E-03    2.155520E-02    2.841967E-03    1.605288E-04    5.221570E-06    1.087791E-07
         1.547066E-09    1.471601E-11    1.007859E-14   -3.950212E-15   -1.286047E-16   -4.832469E-18   -1.787327E-19   -5.646909E-21   -1.478022E-22   -3.272801E-24
        -6.417357E-26
  12    -1.860372E-24   -8.302679E-23   -3.246578E-21   -1.058171E-19   -2.899068E-18   -7.790248E-17   -2.637575E-15   -1.479497E-14    9.310261E-12    1.227619E-09
         1.087791E-07    6.753149E-06    2.770790E-04    7.003127E-03    9.953520E-02    0.604021        9.953520E-02    7.003127E-03    2.770790E-04    6.753149E-06
         1.087791E-07    1.227619E-09    9.310306E-12   -1.479747E-14   -2.637314E-15   -7.787477E-17   -2.896991E-18   -1.057174E-19   -3.242975E-21   -8.292035E-23
        -1.857612E-24
  13    -3.674277E-23   -1.473710E-21   -5.105756E-20   -1.458162E-18   -3.777823E-17   -1.351372E-15   -2.146496E-14    3.553692E-12    6.022023E-10    6.626580E-08
         5.221570E-06    2.770790E-04    9.120411E-03    0.170991         1.69855         7.05887         1.69855        0.170991        9.120411E-03    2.770790E-04
         5.221570E-06    6.626580E-08    6.022022E-10    3.553704E-12   -2.146341E-14   -1.351243E-15   -3.777162E-17   -1.457746E-18   -5.103912E-20   -1.473077E-21
        -3.672417E-23
  14    -5.150390E-22   -1.894245E-20   -6.052261E-19   -1.590965E-17   -4.967772E-16   -1.256063E-14    7.088305E-13    1.717379E-10    2.334538E-08    2.324336E-06
         1.605288E-04    7.003127E-03    0.170991         2.04752         11.4510         27.6854         11.4510         2.04752        0.170991        7.003127E-03
         1.605288E-04    2.324336E-06    2.334538E-08    1.717378E-10    7.088346E-13   -1.256005E-14   -4.967515E-16   -1.590843E-17   -6.051640E-19   -1.894012E-20
        -5.149643E-22
  15    -4.919940E-21   -1.582578E-19   -4.515721E-18   -1.202619E-16   -3.834069E-15    2.673158E-14    2.475528E-11    4.204310E-09    5.247375E-07    4.744174E-05
         2.841967E-03    9.953520E-02     1.69855         11.4510         33.8451         48.4350         33.8451         11.4510         1.69855        9.953520E-02
         2.841967E-03    4.744174E-05    5.247375E-07    4.204310E-09    2.475527E-11    2.673260E-14   -3.834004E-15   -1.202598E-16   -4.515617E-18   -1.582536E-19
        -4.919795E-21
  16    -3.353575E-20   -8.847639E-19   -2.047028E-17   -6.659361E-16   -1.261323E-14    1.166187E-12    2.818483E-10    4.343376E-08    5.056158E-06    4.146966E-04
         2.155520E-02    0.604021         7.05887         27.6854         48.4350         62.3073         48.4350         27.6854         7.05887        0.604021    
         2.155520E-02    4.146966E-04    5.056158E-06    4.343376E-08    2.818483E-10    1.166187E-12   -1.261323E-14   -6.659362E-16   -2.047029E-17   -8.847640E-19
        -3.353575E-20
  17    -4.919810E-21   -1.582540E-19   -4.515628E-18   -1.202600E-16   -3.834012E-15    2.673247E-14    2.475527E-11    4.204310E-09    5.247375E-07    4.744174E-05
         2.841967E-03    9.953520E-02     1.69855         11.4510         33.8451         48.4350         33.8451         11.4510         1.69855        9.953520E-02
         2.841967E-03    4.744174E-05    5.247375E-07    4.204310E-09    2.475528E-11    2.673158E-14   -3.834069E-15   -1.202619E-16   -4.515721E-18   -1.582578E-19
        -4.919940E-21
  18    -5.149775E-22   -1.894052E-20   -6.051743E-19   -1.590862E-17   -4.967552E-16   -1.256012E-14    7.088342E-13    1.717379E-10    2.334538E-08    2.324336E-06
         1.605288E-04    7.003127E-03    0.170991         2.04752         11.4510         27.6854         11.4510         2.04752        0.170991        7.003127E-03
         1.605288E-04    2.324336E-06    2.334538E-08    1.717379E-10    7.088306E-13   -1.256063E-14   -4.967772E-16   -1.590965E-17   -6.052261E-19   -1.894245E-20
        -5.150389E-22
  19    -3.672843E-23   -1.473218E-21   -5.104312E-20   -1.457833E-18   -3.777287E-17   -1.351261E-15   -2.146342E-14    3.553702E-12    6.022022E-10    6.626580E-08
         5.221570E-06    2.770790E-04    9.120411E-03    0.170991         1.69855         7.05887         1.69855        0.170991        9.120411E-03    2.770790E-04
         5.221570E-06    6.626580E-08    6.022023E-10    3.553692E-12   -2.146496E-14   -1.351372E-15   -3.777823E-17   -1.458162E-18   -5.105756E-20   -1.473710E-21
        -3.674277E-23
  20    -1.858265E-24   -8.294503E-23   -3.243792E-21   -1.057394E-19   -2.897433E-18   -7.788006E-17   -2.637332E-15   -1.479589E-14    9.310299E-12    1.227619E-09
         1.087791E-07    6.753149E-06    2.770790E-04    7.003127E-03    9.953520E-02    0.604021        9.953520E-02    7.003127E-03    2.770790E-04    6.753149E-06
         1.087791E-07    1.227619E-09    9.310261E-12   -1.479497E-14   -2.637575E-15   -7.790248E-17   -2.899068E-18   -1.058171E-19   -3.246578E-21   -8.302679E-23
        -1.860372E-24
  21    -6.422241E-26   -3.274916E-24   -1.478833E-22   -5.649520E-21   -1.787994E-19   -4.833709E-18   -1.286178E-16   -3.950228E-15    1.008102E-14    1.471601E-11
         1.547066E-09    1.087791E-07    5.221570E-06    1.605288E-04    2.841967E-03    2.155520E-02    2.841967E-03    1.605288E-04    5.221570E-06    1.087791E-07
         1.547066E-09    1.471594E-11    1.008718E-14   -3.950733E-15   -1.286900E-16   -4.839526E-18   -1.790898E-19   -5.660277E-21   -1.482036E-22   -3.282966E-24
        -6.440284E-26
  22    -1.545713E-27   -9.215245E-26   -4.878200E-24   -2.204331E-22   -8.292897E-21   -2.564766E-19   -6.770486E-18   -1.723163E-16   -4.773354E-15    2.504195E-14
         1.471601E-11    1.227619E-09    6.626580E-08    2.324336E-06    4.744174E-05    4.146966E-04    4.744174E-05    2.324336E-06    6.626580E-08    1.227619E-09
         1.471594E-11    2.505306E-14   -4.774119E-15   -1.724687E-16   -6.784229E-18   -2.572087E-19   -8.321246E-21   -2.212980E-22   -4.900024E-24   -9.262477E-26
        -1.554874E-27
  23    -2.632609E-29   -1.880095E-27   -1.185381E-25   -6.387771E-24   -2.876617E-22   -1.060325E-20   -3.173248E-19   -8.005367E-18   -1.897420E-16   -4.773341E-15
         1.007859E-14    9.310306E-12    6.022022E-10    2.334538E-08    5.247375E-07    5.056158E-06    5.247375E-07    2.334538E-08    6.022023E-10    9.310261E-12
         1.008718E-14   -4.774119E-15   -1.899447E-16   -8.026865E-18   -3.185994E-19   -1.065636E-20   -2.893593E-22   -6.431535E-24   -1.194830E-25   -1.897682E-27
        -2.661879E-29
  24    -3.143780E-31   -2.784134E-29   -2.139194E-27   -1.393521E-25   -7.563257E-24   -3.355695E-22   -1.196284E-20   -3.404925E-19   -8.004445E-18   -1.723016E-16
        -3.950212E-15   -1.479747E-14    3.553704E-12    1.717378E-10    4.204310E-09    4.343376E-08    4.204310E-09    1.717379E-10    3.553692E-12   -1.479497E-14
        -3.950733E-15   -1.724687E-16   -8.026865E-18   -3.420596E-19   -1.203607E-20   -3.380983E-22   -7.631517E-24   -1.408522E-25   -2.166870E-27   -2.828039E-29
        -3.205581E-31
  25    -2.486992E-33   -2.921811E-31   -2.849133E-29   -2.299679E-27   -1.525082E-25   -8.205466E-24   -3.529153E-22   -1.196043E-20   -3.172280E-19   -6.768687E-18
        -1.286047E-16   -2.637314E-15   -2.146341E-14    7.088346E-13    2.475527E-11    2.818483E-10    2.475528E-11    7.088306E-13   -2.146496E-14   -2.637575E-15
        -1.286900E-16   -6.784229E-18   -3.185994E-19   -1.203607E-20   -3.558509E-22   -8.291093E-24   -1.544739E-25   -2.336401E-27   -2.906395E-29   -2.997948E-31
        -2.575770E-33
  26    -1.044027E-35   -2.007590E-33   -2.718844E-31   -2.852297E-29   -2.373094E-27   -1.569508E-25   -8.203233E-24   -3.354190E-22   -1.059783E-20   -2.563632E-19
        -4.832469E-18   -7.787477E-17   -1.351243E-15   -1.256005E-14    2.673260E-14    1.166187E-12    2.673158E-14   -1.256063E-14   -1.351372E-15   -7.790248E-17
        -4.839526E-18   -2.572087E-19   -1.065636E-20   -3.380983E-22   -8.291093E-24   -1.591290E-25   -2.415469E-27   -2.918753E-29   -2.804697E-31   -2.100792E-33
        -1.131338E-35
  27     1.276631E-38   -6.466746E-36   -1.699767E-33   -2.590034E-31   -2.845228E-29   -2.372216E-27   -1.524155E-25   -7.557751E-24   -2.874535E-22   -8.287974E-21
        -1.787327E-19   -2.896991E-18   -3.777162E-17   -4.967515E-16   -3.834004E-15   -1.261323E-14   -3.834069E-15   -4.967772E-16   -3.777823E-17   -2.899068E-18
        -1.790898E-19   -8.321246E-21   -2.893593E-22   -7.631517E-24   -1.544739E-25   -2.415469E-27   -2.915684E-29   -2.680844E-31   -1.793977E-33   -7.268382E-36
         7.004258E-39
  28     4.547918E-40    2.507146E-38   -4.587830E-36   -1.590672E-33   -2.588545E-31   -2.849809E-29   -2.297326E-27   -1.392057E-25   -6.381684E-24   -2.202699E-22
        -5.646909E-21   -1.057174E-19   -1.457746E-18   -1.590843E-17   -1.202598E-16   -6.659362E-16   -1.202619E-16   -1.590965E-17   -1.458162E-18   -1.058171E-19
        -5.660277E-21   -2.212980E-22   -6.431535E-24   -1.408522E-25   -2.336401E-27   -2.918753E-29   -2.680844E-31   -1.685498E-33   -5.341369E-36    2.037378E-38
         4.308806E-40
  29     2.595854E-42    4.033242E-40    2.815874E-38   -4.578269E-36   -1.697002E-33   -2.714493E-31   -2.844692E-29   -2.136120E-27   -1.183942E-25   -4.873813E-24
        -1.478022E-22   -3.242975E-21   -5.103912E-20   -6.051640E-19   -4.515617E-18   -2.047029E-17   -4.515721E-18   -6.052261E-19   -5.105756E-20   -3.246578E-21
        -1.482036E-22   -4.900024E-24   -1.194830E-25   -2.166870E-27   -2.906395E-29   -2.804697E-31   -1.793977E-33   -5.341369E-36    2.383374E-38    3.858835E-40
         2.542813E-42
  30     6.018025E-45    2.061207E-42    4.034922E-40    2.517690E-38   -6.435197E-36   -2.001906E-33   -2.915101E-31   -2.778789E-29   -1.877233E-27   -9.205278E-26
        -3.272801E-24   -8.292035E-23   -1.473077E-21   -1.894012E-20   -1.582536E-19   -8.847640E-19   -1.582578E-19   -1.894245E-20   -1.473710E-21   -8.302679E-23
        -3.282966E-24   -9.262477E-26   -1.897682E-27   -2.828039E-29   -2.997948E-31   -2.100792E-33   -7.268382E-36    2.037378E-38    3.858835E-40    2.025744E-42
         5.981053E-45
  31      0.00000        6.018492E-45    2.596829E-42    4.555184E-40    1.303820E-38   -1.038007E-35   -2.478442E-33   -3.135740E-31   -2.627600E-29   -1.543704E-27
        -6.417357E-26   -1.857612E-24   -3.672417E-23   -5.149643E-22   -4.919795E-21   -3.353575E-20   -4.919940E-21   -5.150389E-22   -3.674277E-23   -1.860372E-24
        -6.440284E-26   -1.554874E-27   -2.661879E-29   -3.205581E-31   -2.575770E-33   -1.131338E-35    7.004258E-39    4.308806E-40    2.542813E-42    5.981053E-45
          0.00000    

 CONCENTRATION WILL BE SAVED ON UNIT 1030 AT END OF TIME STEP   23, STRESS PERIOD    2


  MASS BUDGET FOR ENTIRE MODEL AT END OF TIME STEP   23, STRESS PERIOD   2
  ---------------------------------------------------------------------------------------------------

     CUMULATIVE MASS      M       RATES FOR THIS TIME STEP      M/T          PACKAGE NAME    
     ------------------                 ------------------------                     ----------------

           IN:                                      IN:
           ---                                      ---
     STORAGE-AQUEOUS =  4210959629.6853       STORAGE-AQUEOUS =     5384752.7507     MST                              
                 WEL =  7884000000.0000                   WEL =           0.0000     SSM_WEL-1                        
                 CHD =           0.0000                   CHD =           0.0000     SSM_CHD-1                        

            TOTAL IN = 12094959629.6853              TOTAL IN =     5384752.7507

          OUT:                                     OUT:
          ----                                     ----
     STORAGE-AQUEOUS =  7888403509.7918       STORAGE-AQUEOUS =        1403.4840     MST                              
                 WEL =  4206556119.8935                   WEL =     5383349.2667     SSM_WEL-1                        
                 CHD =       7.5562E-18                   CHD =           0.0000     SSM_CHD-1                        

           TOTAL OUT = 12094959629.6853             TOTAL OUT =     5384752.7507

            IN - OUT =      -2.6703E-05              IN - OUT =      -1.2293E-07

 PERCENT DISCREPANCY =          -0.00     PERCENT DISCREPANCY =          -0.00




         TIME SUMMARY AT END OF TIME STEP   23 IN STRESS PERIOD    2
                    SECONDS     MINUTES      HOURS       DAYS        YEARS
                    -----------------------------------------------------------
   TIME STEP LENGTH 2.16991E+06  36165.      602.75      25.115     6.87602E-02
 STRESS PERIOD TIME 4.99079E+07 8.31798E+05  13863.      577.64      1.5815    
         TOTAL TIME 1.28748E+08 2.14580E+06  35763.      1490.1      4.0798    


end timestep


start timestep kper="2" kstp="24" mode="normal"

 UBDSV1 SAVING  STORAGE-AQUEOUS ON UNIT   1029 AT TIME STEP     24, STRESS PERIOD      2
 UBDSV1 SAVING     FLOW-JA-FACE ON UNIT   1029 AT TIME STEP     24, STRESS PERIOD      2
 UBDSV06 SAVING  SOURCE-SINK MIX IN MODEL GWT_P06-MF6      PACKAGE GWT_P06-MF6     CONNECTED TO MODEL GWT_P06-MF6      PACKAGE SSM              ON UNIT   1029 AT TIME STEP     24, STRESS PERIOD      2
1
  CONCENTRATION IN LAYER   1 AT END OF TIME STEP  24 IN STRESS PERIOD    2
  ---------------------------------------------------------------------------

                1               2               3               4               5               6               7               8               9              10
               11              12              13              14              15              16              17              18              19              20
               21              22              23              24              25              26              27              28              29              30
               31
 ................................................................................................................................................................................................................................................................................................................................................................................................................................................................................................................
   1      0.00000        6.284925E-45    2.635682E-42    4.333204E-40    2.392063E-39   -1.263935E-35   -2.776381E-33   -3.403513E-31   -2.797454E-29   -1.620507E-27
        -6.663892E-26   -1.913371E-24   -3.762547E-23   -5.254625E-22   -4.999703E-21   -3.383144E-20   -4.999571E-21   -5.254002E-22   -3.761092E-23   -1.911225E-24
        -6.645446E-26   -1.611092E-27   -2.767197E-29   -3.339213E-31   -2.683371E-33   -1.171772E-35    8.526243E-39    4.590579E-40    2.693869E-42    6.328214E-45
          0.00000    
   2     6.284925E-45    2.092926E-42    3.903690E-40    1.775968E-38   -8.200882E-36   -2.263007E-33   -3.180481E-31   -2.971649E-29   -1.978885E-27   -9.593924E-26
        -3.379659E-24   -8.501635E-23   -1.502964E-21   -1.925199E-20   -1.603239E-19   -8.906844E-19   -1.603201E-19   -1.925004E-20   -1.502467E-21   -8.493338E-23
        -3.371458E-24   -9.545583E-26   -1.960791E-27   -2.926235E-29   -3.101287E-31   -2.165511E-33   -7.357242E-36    2.273808E-38    4.090366E-40    2.131693E-42
         6.328755E-45
   3     2.635682E-42    3.903690E-40    2.179122E-38   -6.085345E-36   -1.930963E-33   -2.971864E-31   -3.051630E-29   -2.259109E-27   -1.237942E-25   -5.047396E-24
        -1.518315E-22   -3.310155E-21   -5.187837E-20   -6.129362E-19   -4.568151E-18   -2.062381E-17   -4.568057E-18   -6.128842E-19   -5.186382E-20   -3.307338E-21
        -1.515065E-22   -5.025145E-24   -1.228262E-25   -2.230620E-27   -2.992399E-29   -2.882633E-31   -1.832566E-33   -5.294033E-36    2.636554E-38    4.092196E-40
         2.694961E-42
   4     4.333204E-40    1.775968E-38   -6.085345E-36   -1.813520E-33   -2.838062E-31   -3.062054E-29   -2.434553E-27   -1.459081E-25   -6.625948E-24   -2.267986E-22
        -5.773013E-21   -1.075209E-19   -1.479296E-18   -1.608598E-17   -1.214777E-16   -6.647914E-16   -1.214758E-16   -1.608496E-17   -1.478966E-18   -1.074427E-19
        -5.762138E-21   -2.259202E-22   -6.581296E-24   -1.443704E-25   -2.396743E-27   -2.993330E-29   -2.743737E-31   -1.714542E-33   -5.283905E-36    2.285117E-38
         4.598527E-40
   5     2.392063E-39   -8.200882E-36   -1.930963E-33   -2.838062E-31   -3.057755E-29   -2.515912E-27   -1.599721E-25   -7.861470E-24   -2.965919E-22   -8.490196E-21
        -1.820987E-19   -2.945858E-18   -3.840156E-17   -4.999009E-16   -3.776509E-15   -1.156541E-14   -3.776452E-15   -4.998788E-16   -3.839619E-17   -2.944220E-18
        -1.818064E-19   -8.461523E-21   -2.948669E-22   -7.791788E-24   -1.579566E-25   -2.472281E-27   -2.984902E-29   -2.742183E-31   -1.829659E-33   -7.323751E-36
         8.819074E-39
   6    -1.263935E-35   -2.263007E-33   -2.971864E-31   -3.062054E-29   -2.515912E-27   -1.647711E-25   -8.539960E-24   -3.465525E-22   -1.087534E-20   -2.617052E-19
        -4.924258E-18   -7.924032E-17   -1.350231E-15   -1.178951E-14    4.795030E-14    1.380893E-12    4.795118E-14   -1.178901E-14   -1.350120E-15   -7.921799E-17
        -4.918433E-18   -2.609682E-19   -1.082159E-20   -3.439817E-22   -8.452526E-24   -1.625376E-25   -2.471374E-27   -2.990749E-29   -2.878089E-31   -2.159527E-33
        -1.165364E-35
   7    -2.776381E-33   -3.180481E-31   -3.051630E-29   -2.434553E-27   -1.599721E-25   -8.539960E-24   -3.647451E-22   -1.228468E-20   -3.242980E-19   -6.907921E-18
        -1.307922E-16   -2.619133E-15   -1.747746E-14    8.685241E-13    2.831426E-11    3.156189E-10    2.831425E-11    8.685276E-13   -1.747592E-14   -2.618888E-15
        -1.307205E-16   -6.894166E-18   -3.230145E-19   -1.221057E-20   -3.617604E-22   -8.450243E-24   -1.578613E-25   -2.394314E-27   -2.987789E-29   -3.094276E-31
        -2.674360E-33
   8    -3.403513E-31   -2.971649E-29   -2.259109E-27   -1.459081E-25   -7.861470E-24   -3.465525E-22   -1.228468E-20   -3.482218E-19   -8.175383E-18   -1.750985E-16
        -3.888591E-15   -3.049519E-15    4.192041E-12    1.944501E-10    4.673184E-09    4.751534E-08    4.673184E-09    1.944501E-10    4.192051E-12   -3.050394E-15
        -3.888095E-15   -1.749477E-16   -8.153869E-18   -3.466437E-19   -1.220812E-20   -3.438286E-22   -7.786159E-24   -1.442201E-25   -2.227447E-27   -2.920689E-29
        -3.330812E-31
   9    -2.797454E-29   -1.978885E-27   -1.237942E-25   -6.625948E-24   -2.965919E-22   -1.087534E-20   -3.242980E-19   -8.175383E-18   -1.927519E-16   -4.662412E-15
         3.155850E-14    1.083849E-11    6.780888E-10    2.578674E-08    5.695203E-07    5.395887E-06    5.695203E-07    2.578674E-08    6.780886E-10    1.083852E-11
         3.155257E-14   -4.661665E-15   -1.925515E-16   -8.152947E-18   -3.229169E-19   -1.081611E-20   -2.946551E-22   -6.575078E-24   -1.226786E-25   -1.957841E-27
        -2.762005E-29
  10    -1.620507E-27   -9.593924E-26   -5.047396E-24   -2.267986E-22   -8.490196E-21   -2.617052E-19   -6.907921E-18   -1.750985E-16   -4.662412E-15    5.120290E-14
         1.704815E-11    1.377965E-09    7.285572E-08    2.505217E-06    5.018141E-05    4.310491E-04    5.018141E-05    2.505217E-06    7.285572E-08    1.377965E-09
         1.704822E-11    5.119218E-14   -4.661653E-15   -1.749332E-16   -6.892366E-18   -2.608541E-19   -8.456542E-21   -2.257543E-22   -5.020669E-24   -9.535373E-26
        -1.609025E-27
  11    -6.663892E-26   -3.379659E-24   -1.518315E-22   -5.773013E-21   -1.820987E-19   -4.924258E-18   -1.307922E-16   -3.888591E-15    3.155850E-14    1.704815E-11
         1.734725E-09    1.193021E-07    5.601720E-06    1.685497E-04    2.925942E-03    2.180627E-02    2.925942E-03    1.685497E-04    5.601720E-06    1.193021E-07
         1.734725E-09    1.704822E-11    3.155020E-14   -3.888081E-15   -1.307076E-16   -4.917193E-18   -1.817392E-19   -5.759499E-21   -1.514241E-22   -3.369304E-24
        -6.640452E-26
  12    -1.913371E-24   -8.501635E-23   -3.310155E-21   -1.075209E-19   -2.945858E-18   -7.924032E-17   -2.619133E-15   -3.049519E-15    1.083849E-11    1.377965E-09
         1.193021E-07    7.232972E-06    2.897099E-04    7.156378E-03    9.972101E-02    0.595402        9.972101E-02    7.156378E-03    2.897099E-04    7.232972E-06
         1.193021E-07    1.377965E-09    1.083853E-11   -3.051958E-15   -2.618863E-15   -7.921275E-17   -2.943777E-18   -1.074205E-19   -3.306513E-21   -8.490836E-23
        -1.910561E-24
  13    -3.762547E-23   -1.502964E-21   -5.187837E-20   -1.479296E-18   -3.840156E-17   -1.350231E-15   -1.747746E-14    4.192041E-12    6.780888E-10    7.285572E-08
         5.601720E-06    2.897099E-04    9.293771E-03    0.170174         1.66055         6.82729         1.66055        0.170174        9.293771E-03    2.897099E-04
         5.601720E-06    7.285572E-08    6.780886E-10    4.192053E-12   -1.747591E-14   -1.350102E-15   -3.839494E-17   -1.478878E-18   -5.185979E-20   -1.502324E-21
        -3.760660E-23
  14    -5.254625E-22   -1.925199E-20   -6.129362E-19   -1.608598E-17   -4.999009E-16   -1.178951E-14    8.685241E-13    1.944501E-10    2.578674E-08    2.505217E-06
         1.685497E-04    7.156378E-03    0.170174         1.99391         11.0329         26.6349         11.0329         1.99391        0.170174        7.156378E-03
         1.685497E-04    2.505217E-06    2.578674E-08    1.944500E-10    8.685280E-13   -1.178894E-14   -4.998751E-16   -1.608476E-17   -6.128738E-19   -1.924963E-20
        -5.253869E-22
  15    -4.999703E-21   -1.603239E-19   -4.568151E-18   -1.214777E-16   -3.776509E-15    4.795030E-14    2.831426E-11    4.673184E-09    5.695203E-07    5.018141E-05
         2.925942E-03    9.972101E-02     1.66055         11.0329         32.6171         46.6807         32.6171         11.0329         1.66055        9.972101E-02
         2.925942E-03    5.018141E-05    5.695203E-07    4.673184E-09    2.831425E-11    4.795131E-14   -3.776444E-15   -1.214755E-16   -4.568046E-18   -1.603196E-19
        -4.999556E-21
  16    -3.383144E-20   -8.906844E-19   -2.062381E-17   -6.647914E-16   -1.156541E-14    1.380893E-12    3.156189E-10    4.751534E-08    5.395887E-06    4.310491E-04
         2.180627E-02    0.595402         6.82729         26.6349         46.6807         60.2188         46.6807         26.6349         6.82729        0.595402    
         2.180627E-02    4.310491E-04    5.395887E-06    4.751534E-08    3.156189E-10    1.380893E-12   -1.156541E-14   -6.647914E-16   -2.062381E-17   -8.906845E-19
        -3.383144E-20
  17    -4.999571E-21   -1.603201E-19   -4.568057E-18   -1.214758E-16   -3.776452E-15    4.795118E-14    2.831425E-11    4.673184E-09    5.695203E-07    5.018141E-05
         2.925942E-03    9.972101E-02     1.66055         11.0329         32.6171         46.6807         32.6171         11.0329         1.66055        9.972101E-02
         2.925942E-03    5.018141E-05    5.695203E-07    4.673184E-09    2.831426E-11    4.795031E-14   -3.776509E-15   -1.214777E-16   -4.568151E-18   -1.603239E-19
        -4.999703E-21
  18    -5.254002E-22   -1.925004E-20   -6.128842E-19   -1.608496E-17   -4.998788E-16   -1.178901E-14    8.685276E-13    1.944501E-10    2.578674E-08    2.505217E-06
         1.685497E-04    7.156378E-03    0.170174         1.99391         11.0329         26.6349         11.0329         1.99391        0.170174        7.156378E-03
         1.685497E-04    2.505217E-06    2.578674E-08    1.944501E-10    8.685241E-13   -1.178951E-14   -4.999009E-16   -1.608598E-17   -6.129362E-19   -1.925199E-20
        -5.254625E-22
  19    -3.761092E-23   -1.502467E-21   -5.186382E-20   -1.478966E-18   -3.839619E-17   -1.350120E-15   -1.747592E-14    4.192051E-12    6.780886E-10    7.285572E-08
         5.601720E-06    2.897099E-04    9.293771E-03    0.170174         1.66055         6.82729         1.66055        0.170174        9.293771E-03    2.897099E-04
         5.601720E-06    7.285572E-08    6.780888E-10    4.192041E-12   -1.747746E-14   -1.350231E-15   -3.840156E-17   -1.479296E-18   -5.187837E-20   -1.502964E-21
        -3.762547E-23
  20    -1.911225E-24   -8.493338E-23   -3.307338E-21   -1.074427E-19   -2.944220E-18   -7.921799E-17   -2.618888E-15   -3.050394E-15    1.083852E-11    1.377965E-09
         1.193021E-07    7.232972E-06    2.897099E-04    7.156378E-03    9.972101E-02    0.595402        9.972101E-02    7.156378E-03    2.897099E-04    7.232972E-06
         1.193021E-07    1.377965E-09    1.083849E-11   -3.049519E-15   -2.619133E-15   -7.924032E-17   -2.945858E-18   -1.075209E-19   -3.310155E-21   -8.501634E-23
        -1.913371E-24
  21    -6.645446E-26   -3.371458E-24   -1.515065E-22   -5.762138E-21   -1.818064E-19   -4.918433E-18   -1.307205E-16   -3.888095E-15    3.155257E-14    1.704822E-11
         1.734725E-09    1.193021E-07    5.601720E-06    1.685497E-04    2.925942E-03    2.180627E-02    2.925942E-03    1.685497E-04    5.601720E-06    1.193021E-07
         1.734725E-09    1.704815E-11    3.155850E-14   -3.888591E-15   -1.307922E-16   -4.924257E-18   -1.820987E-19   -5.773013E-21   -1.518315E-22   -3.379659E-24
        -6.663892E-26
  22    -1.611092E-27   -9.545583E-26   -5.025145E-24   -2.259202E-22   -8.461523E-21   -2.609682E-19   -6.894166E-18   -1.749477E-16   -4.661665E-15    5.119218E-14
         1.704822E-11    1.377965E-09    7.285572E-08    2.505217E-06    5.018141E-05    4.310491E-04    5.018141E-05    2.505217E-06    7.285572E-08    1.377965E-09
         1.704815E-11    5.120290E-14   -4.662412E-15   -1.750985E-16   -6.907921E-18   -2.617052E-19   -8.490196E-21   -2.267986E-22   -5.047396E-24   -9.593924E-26
        -1.620507E-27
  23    -2.767197E-29   -1.960791E-27   -1.228262E-25   -6.581296E-24   -2.948669E-22   -1.082159E-20   -3.230145E-19   -8.153869E-18   -1.925515E-16   -4.661653E-15
         3.155020E-14    1.083853E-11    6.780886E-10    2.578674E-08    5.695203E-07    5.395887E-06    5.695203E-07    2.578674E-08    6.780888E-10    1.083849E-11
         3.155850E-14   -4.662412E-15   -1.927519E-16   -8.175383E-18   -3.242980E-19   -1.087534E-20   -2.965919E-22   -6.625948E-24   -1.237942E-25   -1.978885E-27
        -2.797454E-29
  24    -3.339213E-31   -2.926235E-29   -2.230620E-27   -1.443704E-25   -7.791788E-24   -3.439817E-22   -1.221057E-20   -3.466437E-19   -8.152947E-18   -1.749332E-16
        -3.888081E-15   -3.051958E-15    4.192053E-12    1.944500E-10    4.673184E-09    4.751534E-08    4.673184E-09    1.944501E-10    4.192041E-12   -3.049519E-15
        -3.888591E-15   -1.750985E-16   -8.175383E-18   -3.482218E-19   -1.228468E-20   -3.465525E-22   -7.861470E-24   -1.459081E-25   -2.259109E-27   -2.971649E-29
        -3.403513E-31
  25    -2.683371E-33   -3.101287E-31   -2.992399E-29   -2.396743E-27   -1.579566E-25   -8.452526E-24   -3.617604E-22   -1.220812E-20   -3.229169E-19   -6.892366E-18
        -1.307076E-16   -2.618863E-15   -1.747591E-14    8.685280E-13    2.831425E-11    3.156189E-10    2.831426E-11    8.685241E-13   -1.747746E-14   -2.619133E-15
        -1.307922E-16   -6.907921E-18   -3.242980E-19   -1.228468E-20   -3.647451E-22   -8.539960E-24   -1.599721E-25   -2.434553E-27   -3.051630E-29   -3.180481E-31
        -2.776381E-33
  26    -1.171772E-35   -2.165511E-33   -2.882633E-31   -2.993330E-29   -2.472281E-27   -1.625376E-25   -8.450243E-24   -3.438286E-22   -1.081611E-20   -2.608541E-19
        -4.917193E-18   -7.921275E-17   -1.350102E-15   -1.178894E-14    4.795131E-14    1.380893E-12    4.795031E-14   -1.178951E-14   -1.350231E-15   -7.924032E-17
        -4.924257E-18   -2.617052E-19   -1.087534E-20   -3.465525E-22   -8.539960E-24   -1.647711E-25   -2.515912E-27   -3.062054E-29   -2.971864E-31   -2.263007E-33
        -1.263935E-35
  27     8.526243E-39   -7.357242E-36   -1.832566E-33   -2.743737E-31   -2.984902E-29   -2.471374E-27   -1.578613E-25   -7.786159E-24   -2.946551E-22   -8.456542E-21
        -1.817392E-19   -2.943777E-18   -3.839494E-17   -4.998751E-16   -3.776444E-15   -1.156541E-14   -3.776509E-15   -4.999009E-16   -3.840156E-17   -2.945858E-18
        -1.820987E-19   -8.490196E-21   -2.965919E-22   -7.861470E-24   -1.599721E-25   -2.515912E-27   -3.057755E-29   -2.838062E-31   -1.930963E-33   -8.200882E-36
         2.392065E-39
  28     4.590579E-40    2.273808E-38   -5.294033E-36   -1.714542E-33   -2.742183E-31   -2.990749E-29   -2.394314E-27   -1.442201E-25   -6.575078E-24   -2.257543E-22
        -5.759499E-21   -1.074205E-19   -1.478878E-18   -1.608476E-17   -1.214755E-16   -6.647914E-16   -1.214777E-16   -1.608598E-17   -1.479296E-18   -1.075209E-19
        -5.773013E-21   -2.267986E-22   -6.625948E-24   -1.459081E-25   -2.434553E-27   -3.062054E-29   -2.838062E-31   -1.813520E-33   -6.085345E-36    1.775968E-38
         4.333204E-40
  29     2.693869E-42    4.090366E-40    2.636554E-38   -5.283905E-36   -1.829659E-33   -2.878089E-31   -2.987789E-29   -2.227447E-27   -1.226786E-25   -5.020669E-24
        -1.514241E-22   -3.306513E-21   -5.185979E-20   -6.128738E-19   -4.568046E-18   -2.062381E-17   -4.568151E-18   -6.129362E-19   -5.187837E-20   -3.310155E-21
        -1.518315E-22   -5.047396E-24   -1.237942E-25   -2.259109E-27   -3.051630E-29   -2.971864E-31   -1.930963E-33   -6.085345E-36    2.179122E-38    3.903690E-40
         2.635682E-42
  30     6.328214E-45    2.131693E-42    4.092196E-40    2.285117E-38   -7.323751E-36   -2.159527E-33   -3.094276E-31   -2.920689E-29   -1.957841E-27   -9.535373E-26
        -3.369304E-24   -8.490836E-23   -1.502324E-21   -1.924963E-20   -1.603196E-19   -8.906845E-19   -1.603239E-19   -1.925199E-20   -1.502964E-21   -8.501634E-23
        -3.379659E-24   -9.593924E-26   -1.978885E-27   -2.971649E-29   -3.180481E-31   -2.263007E-33   -8.200882E-36    1.775968E-38    3.903690E-40    2.092926E-42
         6.284925E-45
  31      0.00000        6.328755E-45    2.694961E-42    4.598527E-40    8.819074E-39   -1.165364E-35   -2.674360E-33   -3.330812E-31   -2.762005E-29   -1.609025E-27
        -6.640452E-26   -1.910561E-24   -3.760660E-23   -5.253869E-22   -4.999556E-21   -3.383144E-20   -4.999703E-21   -5.254625E-22   -3.762547E-23   -1.913371E-24
        -6.663892E-26   -1.620507E-27   -2.797454E-29   -3.403513E-31   -2.776381E-33   -1.263935E-35    2.392065E-39    4.333204E-40    2.635682E-42    6.284925E-45
          0.00000    

 CONCENTRATION WILL BE SAVED ON UNIT 1030 AT END OF TIME STEP   24, STRESS PERIOD    2


  MASS BUDGET FOR ENTIRE MODEL AT END OF TIME STEP   24, STRESS PERIOD   2
  ---------------------------------------------------------------------------------------------------

     CUMULATIVE MASS      M       RATES FOR THIS TIME STEP      M/T          PACKAGE NAME    
     ------------------                 ------------------------                     ----------------

           IN:                                      IN:
           ---                                      ---
     STORAGE-AQUEOUS =  4341659108.5790       STORAGE-AQUEOUS =     5204107.1048     MST                              
                 WEL =  7884000000.0000                   WEL =           0.0000     SSM_WEL-1                        
                 CHD =           0.0000                   CHD =           0.0000     SSM_CHD-1                        

            TOTAL IN = 12225659108.5790              TOTAL IN =     5204107.1048

          OUT:                                     OUT:
          ----                                     ----
     STORAGE-AQUEOUS =  7888433803.5012       STORAGE-AQUEOUS =        1206.2153     MST                              
                 WEL =  4337225305.0778                   WEL =     5202900.8895     SSM_WEL-1                        
                 CHD =       7.5562E-18                   CHD =           0.0000     SSM_CHD-1                        

           TOTAL OUT = 12225659108.5790             TOTAL OUT =     5204107.1048

            IN - OUT =      -2.6703E-05              IN - OUT =      -1.2387E-07

 PERCENT DISCREPANCY =          -0.00     PERCENT DISCREPANCY =          -0.00




         TIME SUMMARY AT END OF TIME STEP   24 IN STRESS PERIOD    2
                    SECONDS     MINUTES      HOURS       DAYS        YEARS
                    -----------------------------------------------------------
   TIME STEP LENGTH 2.16991E+06  36165.      602.75      25.115     6.87602E-02
 STRESS PERIOD TIME 5.20778E+07 8.67963E+05  14466.      602.75      1.6502    
         TOTAL TIME 1.30918E+08 2.18196E+06  36366.      1515.3      4.1485    


end timestep


start timestep kper="2" kstp="25" mode="normal"

 UBDSV1 SAVING  STORAGE-AQUEOUS ON UNIT   1029 AT TIME STEP     25, STRESS PERIOD      2
 UBDSV1 SAVING     FLOW-JA-FACE ON UNIT   1029 AT TIME STEP     25, STRESS PERIOD      2
 UBDSV06 SAVING  SOURCE-SINK MIX IN MODEL GWT_P06-MF6      PACKAGE GWT_P06-MF6     CONNECTED TO MODEL GWT_P06-MF6      PACKAGE SSM              ON UNIT   1029 AT TIME STEP     25, STRESS PERIOD      2
1
  CONCENTRATION IN LAYER   1 AT END OF TIME STEP  25 IN STRESS PERIOD    2
  ---------------------------------------------------------------------------

                1               2               3               4               5               6               7               8               9              10
               11              12              13              14              15              16              17              18              19              20
               21              22              23              24              25              26              27              28              29              30
               31
 ................................................................................................................................................................................................................................................................................................................................................................................................................................................................................................................
   1      0.00000        6.599119E-45    2.728981E-42    4.343860E-40   -2.743081E-39   -1.406504E-35   -2.988997E-33   -3.611266E-31   -2.938639E-29   -1.688385E-27
        -6.893752E-26   -1.967579E-24   -3.852470E-23   -5.360412E-22   -5.080311E-21   -3.412866E-20   -5.080178E-21   -5.359782E-22   -3.850992E-23   -1.965395E-24
        -6.874895E-26   -1.678711E-27   -2.907367E-29   -3.544383E-31   -2.891587E-33   -1.309267E-35    3.783048E-39    4.620622E-40    2.792687E-42    6.649312E-45
          0.00000    
   2     6.599119E-45    2.160701E-42    3.941558E-40    1.482934E-38   -9.202598E-36   -2.434757E-33   -3.371987E-31   -3.121223E-29   -2.062912E-27   -9.934850E-26
        -3.478575E-24   -8.704236E-23   -1.532650E-21   -1.956499E-20   -1.624097E-19   -8.966537E-19   -1.624058E-19   -1.956302E-20   -1.532147E-21   -8.695819E-23
        -3.470222E-24   -9.885380E-26   -2.044300E-27   -3.074258E-29   -3.289635E-31   -2.332799E-33   -8.315084E-36    2.010267E-38    4.141216E-40    2.203001E-42
         6.649937E-45
   3     2.728981E-42    3.941558E-40    1.949313E-38   -6.883959E-36   -2.075850E-33   -3.147121E-31   -3.202848E-29   -2.354565E-27   -1.282302E-25   -5.198212E-24
        -1.555260E-22   -3.374673E-21   -5.270988E-20   -6.207248E-19   -4.620979E-18   -2.077431E-17   -4.620885E-18   -6.206725E-19   -5.269521E-20   -3.371825E-21
        -1.551962E-22   -5.175529E-24   -1.272386E-25   -2.325242E-27   -3.141593E-29   -3.054399E-31   -1.973105E-33   -6.053232E-36    2.432913E-38    4.143206E-40
         2.793907E-42
   4     4.343860E-40    1.482934E-38   -6.883959E-36   -1.948864E-33   -3.002796E-31   -3.211197E-29   -2.536107E-27   -1.511105E-25   -6.824954E-24   -2.324022E-22
        -5.887476E-21   -1.092510E-19   -1.500736E-18   -1.626225E-17   -1.226293E-16   -6.629149E-16   -1.226274E-16   -1.626122E-17   -1.500405E-18   -1.091722E-19
        -5.876482E-21   -2.315102E-22   -6.779400E-24   -1.495346E-25   -2.497184E-27   -3.140140E-29   -2.904838E-31   -1.845576E-33   -6.042507E-36    2.022388E-38
         4.629303E-40
   5    -2.743081E-39   -9.202598E-36   -2.075850E-33   -3.002796E-31   -3.205589E-29   -2.619818E-27   -1.656292E-25   -8.096876E-24   -3.039623E-22   -8.661862E-21
        -1.851590E-19   -2.993410E-18   -3.901451E-17   -5.023430E-16   -3.702367E-15   -1.036229E-14   -3.702310E-15   -5.023208E-16   -3.900913E-17   -2.991769E-18
        -1.848648E-19   -8.632865E-21   -3.022095E-22   -8.025751E-24   -1.635630E-25   -2.574900E-27   -3.130270E-29   -2.903216E-31   -1.970050E-33   -8.279551E-36
         4.098126E-39
   6    -1.406504E-35   -2.434757E-33   -3.147121E-31   -3.211197E-29   -2.619818E-27   -1.705763E-25   -8.794733E-24   -3.551694E-22   -1.109797E-20   -2.662831E-19
        -5.010235E-18   -8.053634E-17   -1.345580E-15   -1.088057E-14    7.187320E-14    1.619378E-12    7.187406E-14   -1.088006E-14   -1.345469E-15   -8.051411E-17
        -5.004404E-18   -2.655412E-19   -1.104359E-20   -3.525563E-22   -8.705465E-24   -1.682863E-25   -2.573964E-27   -3.137461E-29   -3.049654E-31   -2.326502E-33
        -1.302450E-35
   7    -2.988997E-33   -3.371987E-31   -3.202848E-29   -2.536107E-27   -1.656292E-25   -8.794733E-24   -3.738111E-22   -1.253751E-20   -3.301019E-19   -7.033165E-18
        -1.327844E-16   -2.590717E-15   -1.286592E-14    1.047700E-12    3.224501E-11    3.523246E-10    3.224501E-11    1.047703E-12   -1.286438E-14   -2.590473E-15
        -1.327134E-16   -7.019399E-18   -3.288096E-19   -1.246250E-20   -3.707768E-22   -8.703130E-24   -1.634652E-25   -2.494676E-27   -3.136808E-29   -3.282311E-31
        -2.882095E-33
   8    -3.611266E-31   -3.121223E-29   -2.354565E-27   -1.511105E-25   -8.096876E-24   -3.551694E-22   -1.253751E-20   -3.544985E-19   -8.325546E-18   -1.775291E-16
        -3.800139E-15    1.031167E-14    4.905312E-12    2.193837E-10    5.178690E-09    5.183740E-08    5.178690E-09    2.193836E-10    4.905321E-12    1.031086E-14
        -3.799651E-15   -1.773800E-16   -8.304018E-18   -3.529093E-19   -1.246003E-20   -3.524005E-22   -8.019997E-24   -1.493802E-25   -2.321969E-27   -3.068504E-29
        -3.535611E-31
   9    -2.938639E-29   -2.062912E-27   -1.282302E-25   -6.824954E-24   -3.039623E-22   -1.109797E-20   -3.301019E-19   -8.325546E-18   -1.953164E-16   -4.512957E-15
         5.592232E-14    1.254111E-11    7.609882E-10    2.839955E-08    6.164900E-07    5.745260E-06    6.164900E-07    2.839955E-08    7.609880E-10    1.254115E-11
         5.591662E-14   -4.512227E-15   -1.951183E-16   -8.303096E-18   -3.287113E-19   -1.103804E-20   -3.019942E-22   -6.773049E-24   -1.270872E-25   -2.041259E-27
        -2.901987E-29
  10    -1.688385E-27   -9.934850E-26   -5.198212E-24   -2.324022E-22   -8.661862E-21   -2.662831E-19   -7.033165E-18   -1.775291E-16   -4.512957E-15    8.085703E-14
         1.964248E-11    1.541683E-09    7.986964E-08    2.693323E-06    5.296642E-05    4.472857E-04    5.296642E-05    2.693323E-06    7.986964E-08    1.541683E-09
         1.964255E-11    8.084666E-14   -4.512217E-15   -1.773657E-16   -7.017599E-18   -2.654262E-19   -8.627826E-21   -2.313416E-22   -5.170963E-24   -9.874920E-26
        -1.676585E-27
  11    -6.893752E-26   -3.478575E-24   -1.555260E-22   -5.887476E-21   -1.851590E-19   -5.010235E-18   -1.327844E-16   -3.800139E-15    5.592232E-14    1.964248E-11
         1.938851E-09    1.304690E-07    5.994688E-06    1.766163E-04    3.007858E-03    2.203776E-02    3.007858E-03    1.766163E-04    5.994688E-06    1.304689E-07
         1.938852E-09    1.964256E-11    5.591431E-14   -3.799640E-15   -1.327006E-16   -5.003163E-18   -1.847972E-19   -5.873814E-21   -1.551126E-22   -3.468027E-24
        -6.869789E-26
  12    -1.967579E-24   -8.704236E-23   -3.374673E-21   -1.092510E-19   -2.993410E-18   -8.053634E-17   -2.590717E-15    1.031167E-14    1.254111E-11    1.541683E-09
         1.304690E-07    7.727884E-06    3.023255E-04    7.302864E-03    9.982516E-02    0.586712        9.982516E-02    7.302864E-03    3.023255E-04    7.727884E-06
         1.304689E-07    1.541683E-09    1.254116E-11    1.030933E-14   -2.590450E-15   -8.050892E-17   -2.991326E-18   -1.091499E-19   -3.370992E-21   -8.693282E-23
        -1.964719E-24
  13    -3.852470E-23   -1.532650E-21   -5.270988E-20   -1.500736E-18   -3.901451E-17   -1.345580E-15   -1.286592E-14    4.905312E-12    7.609882E-10    7.986964E-08
         5.994688E-06    3.023255E-04    9.457640E-03    0.169241         1.62311         6.60386         1.62311        0.169241        9.457640E-03    3.023255E-04
         5.994688E-06    7.986964E-08    7.609880E-10    4.905323E-12   -1.286437E-14   -1.345451E-15   -3.900788E-17   -1.500317E-18   -5.269115E-20   -1.532003E-21
        -3.850555E-23
  14    -5.360412E-22   -1.956499E-20   -6.207248E-19   -1.626225E-17   -5.023430E-16   -1.088057E-14    1.047700E-12    2.193837E-10    2.839955E-08    2.693323E-06
         1.766163E-04    7.302864E-03    0.169241         1.94150         10.6315         25.6257         10.6315         1.94150        0.169241        7.302864E-03
         1.766163E-04    2.693323E-06    2.839955E-08    2.193836E-10    1.047704E-12   -1.087999E-14   -5.023172E-16   -1.626103E-17   -6.206620E-19   -1.956262E-20
        -5.359647E-22
  15    -5.080311E-21   -1.624097E-19   -4.620979E-18   -1.226293E-16   -3.702367E-15    7.187320E-14    3.224501E-11    5.178690E-09    6.164900E-07    5.296642E-05
         3.007858E-03    9.982516E-02     1.62311         10.6315         31.4331         44.9826         31.4331         10.6315         1.62311        9.982516E-02
         3.007858E-03    5.296642E-05    6.164900E-07    5.178690E-09    3.224501E-11    7.187418E-14   -3.702302E-15   -1.226272E-16   -4.620873E-18   -1.624054E-19
        -5.080163E-21
  16    -3.412866E-20   -8.966537E-19   -2.077431E-17   -6.629149E-16   -1.036229E-14    1.619378E-12    3.523246E-10    5.183740E-08    5.745260E-06    4.472857E-04
         2.203776E-02    0.586712         6.60386         25.6257         44.9826         58.1730         44.9826         25.6257         6.60386        0.586712    
         2.203776E-02    4.472857E-04    5.745260E-06    5.183740E-08    3.523246E-10    1.619378E-12   -1.036229E-14   -6.629149E-16   -2.077431E-17   -8.966537E-19
        -3.412866E-20
  17    -5.080178E-21   -1.624058E-19   -4.620885E-18   -1.226274E-16   -3.702310E-15    7.187406E-14    3.224501E-11    5.178690E-09    6.164900E-07    5.296642E-05
         3.007858E-03    9.982516E-02     1.62311         10.6315         31.4331         44.9826         31.4331         10.6315         1.62311        9.982516E-02
         3.007858E-03    5.296642E-05    6.164900E-07    5.178690E-09    3.224501E-11    7.187320E-14   -3.702367E-15   -1.226293E-16   -4.620979E-18   -1.624097E-19
        -5.080311E-21
  18    -5.359782E-22   -1.956302E-20   -6.206725E-19   -1.626122E-17   -5.023208E-16   -1.088006E-14    1.047703E-12    2.193836E-10    2.839955E-08    2.693323E-06
         1.766163E-04    7.302864E-03    0.169241         1.94150         10.6315         25.6257         10.6315         1.94150        0.169241        7.302864E-03
         1.766163E-04    2.693323E-06    2.839955E-08    2.193837E-10    1.047700E-12   -1.088057E-14   -5.023430E-16   -1.626225E-17   -6.207248E-19   -1.956499E-20
        -5.360412E-22
  19    -3.850992E-23   -1.532147E-21   -5.269521E-20   -1.500405E-18   -3.900913E-17   -1.345469E-15   -1.286438E-14    4.905321E-12    7.609880E-10    7.986964E-08
         5.994688E-06    3.023255E-04    9.457640E-03    0.169241         1.62311         6.60386         1.62311        0.169241        9.457640E-03    3.023255E-04
         5.994688E-06    7.986964E-08    7.609882E-10    4.905312E-12   -1.286592E-14   -1.345580E-15   -3.901451E-17   -1.500736E-18   -5.270988E-20   -1.532650E-21
        -3.852470E-23
  20    -1.965395E-24   -8.695819E-23   -3.371825E-21   -1.091722E-19   -2.991769E-18   -8.051411E-17   -2.590473E-15    1.031086E-14    1.254115E-11    1.541683E-09
         1.304689E-07    7.727884E-06    3.023255E-04    7.302864E-03    9.982516E-02    0.586712        9.982516E-02    7.302864E-03    3.023255E-04    7.727884E-06
         1.304690E-07    1.541683E-09    1.254111E-11    1.031167E-14   -2.590717E-15   -8.053634E-17   -2.993410E-18   -1.092510E-19   -3.374673E-21   -8.704236E-23
        -1.967579E-24
  21    -6.874895E-26   -3.470222E-24   -1.551962E-22   -5.876482E-21   -1.848648E-19   -5.004404E-18   -1.327134E-16   -3.799651E-15    5.591662E-14    1.964255E-11
         1.938852E-09    1.304689E-07    5.994688E-06    1.766163E-04    3.007858E-03    2.203776E-02    3.007858E-03    1.766163E-04    5.994688E-06    1.304690E-07
         1.938851E-09    1.964248E-11    5.592232E-14   -3.800139E-15   -1.327844E-16   -5.010235E-18   -1.851590E-19   -5.887476E-21   -1.555260E-22   -3.478575E-24
        -6.893752E-26
  22    -1.678711E-27   -9.885380E-26   -5.175529E-24   -2.315102E-22   -8.632865E-21   -2.655412E-19   -7.019399E-18   -1.773800E-16   -4.512227E-15    8.084666E-14
         1.964256E-11    1.541683E-09    7.986964E-08    2.693323E-06    5.296642E-05    4.472857E-04    5.296642E-05    2.693323E-06    7.986964E-08    1.541683E-09
         1.964248E-11    8.085702E-14   -4.512957E-15   -1.775291E-16   -7.033165E-18   -2.662831E-19   -8.661862E-21   -2.324022E-22   -5.198212E-24   -9.934850E-26
        -1.688385E-27
  23    -2.907367E-29   -2.044300E-27   -1.272386E-25   -6.779400E-24   -3.022095E-22   -1.104359E-20   -3.288096E-19   -8.304018E-18   -1.951183E-16   -4.512217E-15
         5.591431E-14    1.254116E-11    7.609880E-10    2.839955E-08    6.164900E-07    5.745260E-06    6.164900E-07    2.839955E-08    7.609882E-10    1.254111E-11
         5.592232E-14   -4.512957E-15   -1.953164E-16   -8.325546E-18   -3.301019E-19   -1.109797E-20   -3.039623E-22   -6.824954E-24   -1.282302E-25   -2.062912E-27
        -2.938639E-29
  24    -3.544383E-31   -3.074258E-29   -2.325242E-27   -1.495346E-25   -8.025751E-24   -3.525563E-22   -1.246250E-20   -3.529093E-19   -8.303096E-18   -1.773657E-16
        -3.799640E-15    1.030933E-14    4.905323E-12    2.193836E-10    5.178690E-09    5.183740E-08    5.178690E-09    2.193837E-10    4.905312E-12    1.031167E-14
        -3.800139E-15   -1.775291E-16   -8.325546E-18   -3.544985E-19   -1.253751E-20   -3.551694E-22   -8.096876E-24   -1.511105E-25   -2.354565E-27   -3.121223E-29
        -3.611266E-31
  25    -2.891587E-33   -3.289635E-31   -3.141593E-29   -2.497184E-27   -1.635630E-25   -8.705465E-24   -3.707768E-22   -1.246003E-20   -3.287113E-19   -7.017599E-18
        -1.327006E-16   -2.590450E-15   -1.286437E-14    1.047704E-12    3.224501E-11    3.523246E-10    3.224501E-11    1.047700E-12   -1.286592E-14   -2.590717E-15
        -1.327844E-16   -7.033165E-18   -3.301019E-19   -1.253751E-20   -3.738111E-22   -8.794733E-24   -1.656292E-25   -2.536107E-27   -3.202848E-29   -3.371987E-31
        -2.988997E-33
  26    -1.309267E-35   -2.332799E-33   -3.054399E-31   -3.140140E-29   -2.574900E-27   -1.682863E-25   -8.703130E-24   -3.524005E-22   -1.103804E-20   -2.654262E-19
        -5.003163E-18   -8.050892E-17   -1.345451E-15   -1.087999E-14    7.187418E-14    1.619378E-12    7.187320E-14   -1.088057E-14   -1.345580E-15   -8.053634E-17
        -5.010235E-18   -2.662831E-19   -1.109797E-20   -3.551694E-22   -8.794733E-24   -1.705763E-25   -2.619818E-27   -3.211197E-29   -3.147121E-31   -2.434757E-33
        -1.406504E-35
  27     3.783048E-39   -8.315084E-36   -1.973105E-33   -2.904838E-31   -3.130270E-29   -2.573964E-27   -1.634652E-25   -8.019997E-24   -3.019942E-22   -8.627826E-21
        -1.847972E-19   -2.991326E-18   -3.900788E-17   -5.023172E-16   -3.702302E-15   -1.036229E-14   -3.702367E-15   -5.023430E-16   -3.901451E-17   -2.993410E-18
        -1.851590E-19   -8.661862E-21   -3.039623E-22   -8.096876E-24   -1.656292E-25   -2.619818E-27   -3.205589E-29   -3.002796E-31   -2.075850E-33   -9.202598E-36
        -2.743080E-39
  28     4.620622E-40    2.010267E-38   -6.053232E-36   -1.845576E-33   -2.903216E-31   -3.137461E-29   -2.494676E-27   -1.493802E-25   -6.773049E-24   -2.313416E-22
        -5.873814E-21   -1.091499E-19   -1.500317E-18   -1.626103E-17   -1.226272E-16   -6.629149E-16   -1.226293E-16   -1.626225E-17   -1.500736E-18   -1.092510E-19
        -5.887476E-21   -2.324022E-22   -6.824954E-24   -1.511105E-25   -2.536107E-27   -3.211197E-29   -3.002796E-31   -1.948864E-33   -6.883959E-36    1.482934E-38
         4.343860E-40
  29     2.792687E-42    4.141216E-40    2.432913E-38   -6.042507E-36   -1.970050E-33   -3.049654E-31   -3.136808E-29   -2.321969E-27   -1.270872E-25   -5.170963E-24
        -1.551126E-22   -3.370992E-21   -5.269115E-20   -6.206620E-19   -4.620873E-18   -2.077431E-17   -4.620979E-18   -6.207248E-19   -5.270988E-20   -3.374673E-21
        -1.555260E-22   -5.198212E-24   -1.282302E-25   -2.354565E-27   -3.202848E-29   -3.147121E-31   -2.075850E-33   -6.883959E-36    1.949314E-38    3.941558E-40
         2.728981E-42
  30     6.649312E-45    2.203001E-42    4.143206E-40    2.022388E-38   -8.279551E-36   -2.326502E-33   -3.282311E-31   -3.068504E-29   -2.041259E-27   -9.874920E-26
        -3.468027E-24   -8.693282E-23   -1.532003E-21   -1.956262E-20   -1.624054E-19   -8.966537E-19   -1.624097E-19   -1.956499E-20   -1.532650E-21   -8.704236E-23
        -3.478575E-24   -9.934850E-26   -2.062912E-27   -3.121223E-29   -3.371987E-31   -2.434757E-33   -9.202598E-36    1.482934E-38    3.941558E-40    2.160701E-42
         6.599119E-45
  31      0.00000        6.649937E-45    2.793907E-42    4.629303E-40    4.098126E-39   -1.302450E-35   -2.882095E-33   -3.535611E-31   -2.901987E-29   -1.676585E-27
        -6.869789E-26   -1.964719E-24   -3.850555E-23   -5.359647E-22   -5.080163E-21   -3.412866E-20   -5.080311E-21   -5.360412E-22   -3.852470E-23   -1.967579E-24
        -6.893752E-26   -1.688385E-27   -2.938639E-29   -3.611266E-31   -2.988997E-33   -1.406504E-35   -2.743080E-39    4.343860E-40    2.728981E-42    6.599119E-45
          0.00000    

 CONCENTRATION WILL BE SAVED ON UNIT 1030 AT END OF TIME STEP   25, STRESS PERIOD    2


  MASS BUDGET FOR ENTIRE MODEL AT END OF TIME STEP   25, STRESS PERIOD   2
  ---------------------------------------------------------------------------------------------------

     CUMULATIVE MASS      M       RATES FOR THIS TIME STEP      M/T          PACKAGE NAME    
     ------------------                 ------------------------                     ----------------

           IN:                                      IN:
           ---                                      ---
     STORAGE-AQUEOUS =  4467914662.7543       STORAGE-AQUEOUS =     5027161.7918     MST                              
                 WEL =  7884000000.0000                   WEL =           0.0000     SSM_WEL-1                        
                 CHD =           0.0000                   CHD =           0.0000     SSM_CHD-1                        

            TOTAL IN = 12351914662.7543              TOTAL IN =     5027161.7918

          OUT:                                     OUT:
          ----                                     ----
     STORAGE-AQUEOUS =  7888459336.3948       STORAGE-AQUEOUS =        1016.6522     MST                              
                 WEL =  4463455326.3596                   WEL =     5026145.1396     SSM_WEL-1                        
                 CHD =       7.5562E-18                   CHD =           0.0000     SSM_CHD-1                        

           TOTAL OUT = 12351914662.7544             TOTAL OUT =     5027161.7918

            IN - OUT =      -3.2425E-05              IN - OUT =      -1.2759E-07

 PERCENT DISCREPANCY =          -0.00     PERCENT DISCREPANCY =          -0.00




         TIME SUMMARY AT END OF TIME STEP   25 IN STRESS PERIOD    2
                    SECONDS     MINUTES      HOURS       DAYS        YEARS
                    -----------------------------------------------------------
   TIME STEP LENGTH 2.16991E+06  36165.      602.75      25.115     6.87602E-02
 STRESS PERIOD TIME 5.42477E+07 9.04128E+05  15069.      627.87      1.7190    
         TOTAL TIME 1.33088E+08 2.21813E+06  36969.      1540.4      4.2173    


end timestep


start timestep kper="2" kstp="26" mode="normal"

 UBDSV1 SAVING  STORAGE-AQUEOUS ON UNIT   1029 AT TIME STEP     26, STRESS PERIOD      2
 UBDSV1 SAVING     FLOW-JA-FACE ON UNIT   1029 AT TIME STEP     26, STRESS PERIOD      2
 UBDSV06 SAVING  SOURCE-SINK MIX IN MODEL GWT_P06-MF6      PACKAGE GWT_P06-MF6     CONNECTED TO MODEL GWT_P06-MF6      PACKAGE SSM              ON UNIT   1029 AT TIME STEP     26, STRESS PERIOD      2
1
  CONCENTRATION IN LAYER   1 AT END OF TIME STEP  26 IN STRESS PERIOD    2
  ---------------------------------------------------------------------------

                1               2               3               4               5               6               7               8               9              10
               11              12              13              14              15              16              17              18              19              20
               21              22              23              24              25              26              27              28              29              30
               31
 ................................................................................................................................................................................................................................................................................................................................................................................................................................................................................................................
   1      0.00000        6.923666E-45    2.822436E-42    4.339271E-40   -8.439231E-39   -1.559626E-35   -3.214198E-33   -3.829238E-31   -3.085620E-29   -1.758568E-27
        -7.129998E-26   -2.023019E-24   -3.944066E-23   -5.467765E-22   -5.161772E-21   -3.442744E-20   -5.161637E-21   -5.467127E-22   -3.942566E-23   -2.020796E-24
        -7.110724E-26   -1.748630E-27   -3.053305E-29   -3.759687E-31   -3.112217E-33   -1.457081E-35   -1.500448E-39    4.636604E-40    2.892059E-42    6.981394E-45
          0.00000    
   2     6.923666E-45    2.228930E-42    3.971643E-40    1.156009E-38   -1.027748E-35   -2.616497E-33   -3.572830E-31   -3.276963E-29   -2.149842E-27   -1.028546E-25
        -3.579751E-24   -8.910534E-23   -1.562773E-21   -1.988150E-20   -1.645153E-19   -9.026694E-19   -1.645114E-19   -1.987951E-20   -1.562264E-21   -8.901994E-23
        -3.571244E-24   -1.023484E-25   -2.130701E-27   -3.228402E-29   -3.487214E-31   -2.509903E-33   -9.344145E-36    1.714317E-38    4.185030E-40    2.275005E-42
         6.982111E-45
   3     2.822436E-42    3.971643E-40    1.692128E-38   -7.740282E-36   -2.229010E-33   -3.330790E-31   -3.360253E-29   -2.453326E-27   -1.327937E-25   -5.352531E-24
        -1.592882E-22   -3.440145E-21   -5.355222E-20   -6.285910E-19   -4.674153E-18   -2.092133E-17   -4.674059E-18   -6.285384E-19   -5.353743E-20   -3.437267E-21
        -1.589534E-22   -5.329410E-24   -1.317782E-25   -2.423151E-27   -3.296915E-29   -3.234460E-31   -2.121751E-33   -6.868435E-36    2.203183E-38    4.187191E-40
         2.893417E-42
   4     4.339271E-40    1.156009E-38   -7.740282E-36   -2.091873E-33   -3.175344E-31   -3.366377E-29   -2.641158E-27   -1.564629E-25   -7.028632E-24   -2.381102E-22
        -6.003694E-21   -1.110077E-19   -1.522473E-18   -1.643793E-17   -1.237055E-16   -6.602162E-16   -1.237036E-16   -1.643689E-17   -1.522140E-18   -1.109284E-19
        -5.992580E-21   -2.372045E-22   -6.982163E-24   -1.548480E-25   -2.601095E-27   -3.292920E-29   -3.073633E-31   -1.984112E-33   -6.857084E-36    1.727298E-38
         4.646071E-40
   5    -8.439231E-39   -1.027748E-35   -2.229010E-33   -3.175344E-31   -3.359380E-29   -2.727284E-27   -1.714491E-25   -8.337832E-24   -3.114727E-22   -8.836295E-21
        -1.882714E-19   -3.041678E-18   -3.961441E-17   -5.040041E-16   -3.609656E-15   -8.987482E-15   -3.609598E-15   -5.039818E-16   -3.960903E-17   -3.040033E-18
        -1.879753E-19   -8.806971E-21   -3.096919E-22   -8.265243E-24   -1.693311E-25   -2.681048E-27   -3.281524E-29   -3.071941E-31   -2.118542E-33   -9.306465E-36
        -1.161750E-39
   6    -1.559626E-35   -2.616497E-33   -3.330790E-31   -3.366377E-29   -2.727284E-27   -1.765481E-25   -9.055518E-24   -3.639517E-22   -1.132431E-20   -2.709428E-19
        -5.097334E-18   -8.178034E-17   -1.337239E-15   -9.817756E-15    9.876663E-14    1.883552E-12    9.876748E-14   -9.817252E-15   -1.337129E-15   -8.175821E-17
        -5.091497E-18   -2.701961E-19   -1.126931E-20   -3.612959E-22   -8.964388E-24   -1.742005E-25   -2.680082E-27   -3.290140E-29   -3.229507E-31   -2.503280E-33
        -1.449835E-35
   7    -3.214198E-33   -3.572830E-31   -3.360253E-29   -2.641158E-27   -1.714491E-25   -9.055518E-24   -3.830517E-22   -1.279463E-20   -3.360116E-19   -7.159718E-18
        -1.346410E-16   -2.548950E-15   -7.559606E-15    1.248144E-12    3.657400E-11    3.921142E-10    3.657400E-11    1.248147E-12   -7.558078E-15   -2.548709E-15
        -1.345707E-16   -7.145943E-18   -3.347105E-19   -1.271874E-20   -3.799673E-22   -8.962001E-24   -1.692306E-25   -2.598507E-27   -3.291950E-29   -3.479566E-31
        -3.102222E-33
   8    -3.829238E-31   -3.276963E-29   -2.453326E-27   -1.564629E-25   -8.337832E-24   -3.639517E-22   -1.279463E-20   -3.608902E-19   -8.477014E-18   -1.797176E-16
        -3.682096E-15    2.545701E-14    5.699941E-12    2.466781E-10    5.722287E-09    5.640389E-08    5.722287E-09    2.466780E-10    5.699950E-12    2.545625E-14
        -3.681616E-15   -1.795701E-16   -8.455473E-18   -3.592900E-19   -1.271623E-20   -3.611374E-22   -8.259362E-24   -1.546895E-25   -2.419774E-27   -3.222434E-29
        -3.750529E-31
   9    -3.085620E-29   -2.149842E-27   -1.327937E-25   -7.028632E-24   -3.114727E-22   -1.132431E-20   -3.360116E-19   -8.477014E-18   -1.975877E-16   -4.321068E-15
         8.348537E-14    1.443241E-11    8.512939E-10    3.118887E-08    6.656502E-07    6.103936E-06    6.656502E-07    3.118887E-08    8.512937E-10    1.443244E-11
         8.347988E-14   -4.320355E-15   -1.973918E-16   -8.454551E-18   -3.346116E-19   -1.126369E-20   -3.094730E-22   -6.975678E-24   -1.316229E-25   -2.127567E-27
        -3.047733E-29
  10    -1.758568E-27   -1.028546E-25   -5.352531E-24   -2.381102E-22   -8.836295E-21   -2.709428E-19   -7.159718E-18   -1.797176E-16   -4.321068E-15    1.143842E-13
         2.251982E-11    1.719465E-09    8.731660E-08    2.888548E-06    5.579298E-05    4.633865E-04    5.579298E-05    2.888548E-06    8.731659E-08    1.719465E-09
         2.251989E-11    1.143742E-13   -4.320347E-15   -1.795560E-16   -7.144143E-18   -2.700803E-19   -8.801874E-21   -2.370333E-22   -5.324752E-24   -1.022413E-25
        -1.746443E-27
  11    -7.129998E-26   -3.579751E-24   -1.592882E-22   -6.003694E-21   -1.882714E-19   -5.097334E-18   -1.346410E-16   -3.682096E-15    8.348537E-14    2.251982E-11
         2.160270E-09    1.422902E-07    6.400093E-06    1.847162E-04    3.087648E-03    2.225016E-02    3.087648E-03    1.847162E-04    6.400093E-06    1.422902E-07
         2.160271E-09    2.251989E-11    8.347763E-14   -3.681608E-15   -1.345580E-16   -5.090256E-18   -1.879073E-19   -5.989884E-21   -1.588686E-22   -3.569009E-24
        -7.105504E-26
  12    -2.023019E-24   -8.910534E-23   -3.440145E-21   -1.110077E-19   -3.041678E-18   -8.178034E-17   -2.548950E-15    2.545701E-14    1.443241E-11    1.719465E-09
         1.422902E-07    8.237337E-06    3.149053E-04    7.442569E-03    9.985171E-02    0.577966        9.985171E-02    7.442569E-03    3.149053E-04    8.237337E-06
         1.422902E-07    1.719465E-09    1.443245E-11    2.545476E-14   -2.548687E-15   -8.175307E-17   -3.039590E-18   -1.109059E-19   -3.436425E-21   -8.899422E-23
        -2.020109E-24
  13    -3.944066E-23   -1.562773E-21   -5.355222E-20   -1.522473E-18   -3.961441E-17   -1.337239E-15   -7.559606E-15    5.699941E-12    8.512939E-10    8.731660E-08
         6.400093E-06    3.149053E-04    9.612079E-03    0.168200         1.58625         6.38828         1.58625        0.168200        9.612079E-03    3.149053E-04
         6.400093E-06    8.731659E-08    8.512937E-10    5.699952E-12   -7.558060E-15   -1.337111E-15   -3.960778E-17   -1.522053E-18   -5.353335E-20   -1.562118E-21
        -3.942123E-23
  14    -5.467765E-22   -1.988150E-20   -6.285910E-19   -1.643793E-17   -5.040041E-16   -9.817756E-15    1.248144E-12    2.466781E-10    3.118887E-08    2.888548E-06
         1.847162E-04    7.442569E-03    0.168200         1.89028         10.2462         24.6563         10.2462         1.89028        0.168200        7.442569E-03
         1.847162E-04    2.888548E-06    3.118887E-08    2.466780E-10    1.248148E-12   -9.817186E-15   -5.039781E-16   -1.643670E-17   -6.285279E-19   -1.987909E-20
        -5.466990E-22
  15    -5.161772E-21   -1.645153E-19   -4.674153E-18   -1.237055E-16   -3.609656E-15    9.876663E-14    3.657400E-11    5.722287E-09    6.656502E-07    5.579298E-05
         3.087648E-03    9.985171E-02     1.58625         10.2462         30.2916         43.3401         30.2916         10.2462         1.58625        9.985171E-02
         3.087648E-03    5.579298E-05    6.656502E-07    5.722287E-09    3.657400E-11    9.876760E-14   -3.609590E-15   -1.237033E-16   -4.674047E-18   -1.645109E-19
        -5.161621E-21
  16    -3.442744E-20   -9.026694E-19   -2.092133E-17   -6.602162E-16   -8.987482E-15    1.883552E-12    3.921142E-10    5.640389E-08    6.103936E-06    4.633865E-04
         2.225016E-02    0.577966         6.38828         24.6563         43.3401         56.1732         43.3401         24.6563         6.38828        0.577966    
         2.225016E-02    4.633865E-04    6.103936E-06    5.640389E-08    3.921142E-10    1.883552E-12   -8.987481E-15   -6.602163E-16   -2.092133E-17   -9.026694E-19
        -3.442744E-20
  17    -5.161637E-21   -1.645114E-19   -4.674059E-18   -1.237036E-16   -3.609598E-15    9.876748E-14    3.657400E-11    5.722287E-09    6.656502E-07    5.579298E-05
         3.087648E-03    9.985171E-02     1.58625         10.2462         30.2916         43.3401         30.2916         10.2462         1.58625        9.985171E-02
         3.087648E-03    5.579298E-05    6.656502E-07    5.722287E-09    3.657400E-11    9.876664E-14   -3.609656E-15   -1.237055E-16   -4.674153E-18   -1.645153E-19
        -5.161772E-21
  18    -5.467127E-22   -1.987951E-20   -6.285384E-19   -1.643689E-17   -5.039818E-16   -9.817252E-15    1.248147E-12    2.466780E-10    3.118887E-08    2.888548E-06
         1.847162E-04    7.442569E-03    0.168200         1.89028         10.2462         24.6563         10.2462         1.89028        0.168200        7.442569E-03
         1.847162E-04    2.888548E-06    3.118887E-08    2.466781E-10    1.248144E-12   -9.817756E-15   -5.040040E-16   -1.643793E-17   -6.285910E-19   -1.988150E-20
        -5.467765E-22
  19    -3.942566E-23   -1.562264E-21   -5.353743E-20   -1.522140E-18   -3.960903E-17   -1.337129E-15   -7.558078E-15    5.699950E-12    8.512937E-10    8.731659E-08
         6.400093E-06    3.149053E-04    9.612079E-03    0.168200         1.58625         6.38828         1.58625        0.168200        9.612079E-03    3.149053E-04
         6.400093E-06    8.731660E-08    8.512939E-10    5.699941E-12   -7.559606E-15   -1.337239E-15   -3.961441E-17   -1.522473E-18   -5.355222E-20   -1.562773E-21
        -3.944066E-23
  20    -2.020796E-24   -8.901994E-23   -3.437267E-21   -1.109284E-19   -3.040033E-18   -8.175821E-17   -2.548709E-15    2.545625E-14    1.443244E-11    1.719465E-09
         1.422902E-07    8.237337E-06    3.149053E-04    7.442569E-03    9.985171E-02    0.577966        9.985171E-02    7.442569E-03    3.149053E-04    8.237337E-06
         1.422902E-07    1.719465E-09    1.443241E-11    2.545701E-14   -2.548950E-15   -8.178034E-17   -3.041678E-18   -1.110077E-19   -3.440145E-21   -8.910534E-23
        -2.023019E-24
  21    -7.110724E-26   -3.571244E-24   -1.589534E-22   -5.992580E-21   -1.879753E-19   -5.091497E-18   -1.345707E-16   -3.681616E-15    8.347988E-14    2.251989E-11
         2.160271E-09    1.422902E-07    6.400093E-06    1.847162E-04    3.087648E-03    2.225016E-02    3.087648E-03    1.847162E-04    6.400093E-06    1.422902E-07
         2.160270E-09    2.251982E-11    8.348537E-14   -3.682096E-15   -1.346410E-16   -5.097334E-18   -1.882714E-19   -6.003694E-21   -1.592882E-22   -3.579751E-24
        -7.129998E-26
  22    -1.748630E-27   -1.023484E-25   -5.329410E-24   -2.372045E-22   -8.806971E-21   -2.701961E-19   -7.145943E-18   -1.795701E-16   -4.320355E-15    1.143742E-13
         2.251989E-11    1.719465E-09    8.731659E-08    2.888548E-06    5.579298E-05    4.633865E-04    5.579298E-05    2.888548E-06    8.731660E-08    1.719465E-09
         2.251982E-11    1.143842E-13   -4.321068E-15   -1.797176E-16   -7.159718E-18   -2.709428E-19   -8.836295E-21   -2.381102E-22   -5.352531E-24   -1.028546E-25
        -1.758568E-27
  23    -3.053305E-29   -2.130701E-27   -1.317782E-25   -6.982163E-24   -3.096919E-22   -1.126931E-20   -3.347105E-19   -8.455473E-18   -1.973918E-16   -4.320347E-15
         8.347763E-14    1.443245E-11    8.512937E-10    3.118887E-08    6.656502E-07    6.103936E-06    6.656502E-07    3.118887E-08    8.512939E-10    1.443241E-11
         8.348537E-14   -4.321068E-15   -1.975877E-16   -8.477014E-18   -3.360116E-19   -1.132431E-20   -3.114727E-22   -7.028632E-24   -1.327937E-25   -2.149842E-27
        -3.085620E-29
  24    -3.759687E-31   -3.228402E-29   -2.423151E-27   -1.548480E-25   -8.265243E-24   -3.612959E-22   -1.271874E-20   -3.592900E-19   -8.454551E-18   -1.795560E-16
        -3.681608E-15    2.545476E-14    5.699952E-12    2.466780E-10    5.722287E-09    5.640389E-08    5.722287E-09    2.466781E-10    5.699941E-12    2.545701E-14
        -3.682096E-15   -1.797176E-16   -8.477014E-18   -3.608902E-19   -1.279463E-20   -3.639517E-22   -8.337832E-24   -1.564629E-25   -2.453326E-27   -3.276963E-29
        -3.829238E-31
  25    -3.112217E-33   -3.487214E-31   -3.296915E-29   -2.601095E-27   -1.693311E-25   -8.964388E-24   -3.799673E-22   -1.271623E-20   -3.346116E-19   -7.144143E-18
        -1.345580E-16   -2.548687E-15   -7.558060E-15    1.248148E-12    3.657400E-11    3.921142E-10    3.657400E-11    1.248144E-12   -7.559606E-15   -2.548950E-15
        -1.346410E-16   -7.159718E-18   -3.360116E-19   -1.279463E-20   -3.830517E-22   -9.055518E-24   -1.714491E-25   -2.641158E-27   -3.360253E-29   -3.572830E-31
        -3.214198E-33
  26    -1.457081E-35   -2.509903E-33   -3.234460E-31   -3.292920E-29   -2.681048E-27   -1.742005E-25   -8.962001E-24   -3.611374E-22   -1.126369E-20   -2.700803E-19
        -5.090256E-18   -8.175307E-17   -1.337111E-15   -9.817186E-15    9.876760E-14    1.883552E-12    9.876664E-14   -9.817756E-15   -1.337239E-15   -8.178034E-17
        -5.097334E-18   -2.709428E-19   -1.132431E-20   -3.639517E-22   -9.055518E-24   -1.765481E-25   -2.727284E-27   -3.366377E-29   -3.330790E-31   -2.616497E-33
        -1.559626E-35
  27    -1.500448E-39   -9.344145E-36   -2.121751E-33   -3.073633E-31   -3.281524E-29   -2.680082E-27   -1.692306E-25   -8.259362E-24   -3.094730E-22   -8.801874E-21
        -1.879073E-19   -3.039590E-18   -3.960778E-17   -5.039781E-16   -3.609590E-15   -8.987481E-15   -3.609656E-15   -5.040040E-16   -3.961441E-17   -3.041678E-18
        -1.882714E-19   -8.836295E-21   -3.114727E-22   -8.337832E-24   -1.714491E-25   -2.727284E-27   -3.359380E-29   -3.175344E-31   -2.229010E-33   -1.027748E-35
        -8.439230E-39
  28     4.636604E-40    1.714317E-38   -6.868435E-36   -1.984112E-33   -3.071941E-31   -3.290140E-29   -2.598507E-27   -1.546895E-25   -6.975678E-24   -2.370333E-22
        -5.989884E-21   -1.109059E-19   -1.522053E-18   -1.643670E-17   -1.237033E-16   -6.602163E-16   -1.237055E-16   -1.643793E-17   -1.522473E-18   -1.110077E-19
        -6.003694E-21   -2.381102E-22   -7.028632E-24   -1.564629E-25   -2.641158E-27   -3.366377E-29   -3.175344E-31   -2.091873E-33   -7.740282E-36    1.156009E-38
         4.339271E-40
  29     2.892059E-42    4.185030E-40    2.203183E-38   -6.857084E-36   -2.118542E-33   -3.229507E-31   -3.291950E-29   -2.419774E-27   -1.316229E-25   -5.324752E-24
        -1.588686E-22   -3.436425E-21   -5.353335E-20   -6.285279E-19   -4.674047E-18   -2.092133E-17   -4.674153E-18   -6.285910E-19   -5.355222E-20   -3.440145E-21
        -1.592882E-22   -5.352531E-24   -1.327937E-25   -2.453326E-27   -3.360253E-29   -3.330790E-31   -2.229010E-33   -7.740282E-36    1.692129E-38    3.971643E-40
         2.822436E-42
  30     6.981394E-45    2.275005E-42    4.187191E-40    1.727298E-38   -9.306465E-36   -2.503280E-33   -3.479566E-31   -3.222434E-29   -2.127567E-27   -1.022413E-25
        -3.569009E-24   -8.899422E-23   -1.562118E-21   -1.987909E-20   -1.645109E-19   -9.026694E-19   -1.645153E-19   -1.988150E-20   -1.562773E-21   -8.910534E-23
        -3.579751E-24   -1.028546E-25   -2.149842E-27   -3.276963E-29   -3.572830E-31   -2.616497E-33   -1.027748E-35    1.156009E-38    3.971643E-40    2.228930E-42
         6.923666E-45
  31      0.00000        6.982111E-45    2.893417E-42    4.646071E-40   -1.161750E-39   -1.449835E-35   -3.102222E-33   -3.750529E-31   -3.047733E-29   -1.746443E-27
        -7.105504E-26   -2.020109E-24   -3.942123E-23   -5.466990E-22   -5.161621E-21   -3.442744E-20   -5.161772E-21   -5.467765E-22   -3.944066E-23   -2.023019E-24
        -7.129998E-26   -1.758568E-27   -3.085620E-29   -3.829238E-31   -3.214198E-33   -1.559626E-35   -8.439230E-39    4.339271E-40    2.822436E-42    6.923666E-45
          0.00000    

 CONCENTRATION WILL BE SAVED ON UNIT 1030 AT END OF TIME STEP   26, STRESS PERIOD    2


  MASS BUDGET FOR ENTIRE MODEL AT END OF TIME STEP   26, STRESS PERIOD   2
  ---------------------------------------------------------------------------------------------------

     CUMULATIVE MASS      M       RATES FOR THIS TIME STEP      M/T          PACKAGE NAME    
     ------------------                 ------------------------                     ----------------

           IN:                                      IN:
           ---                                      ---
     STORAGE-AQUEOUS =  4589826331.4075       STORAGE-AQUEOUS =     4854199.7747     MST                              
                 WEL =  7884000000.0000                   WEL =           0.0000     SSM_WEL-1                        
                 CHD =           0.0000                   CHD =           0.0000     SSM_CHD-1                        

            TOTAL IN = 12473826331.4075              TOTAL IN =     4854199.7747

          OUT:                                     OUT:
          ----                                     ----
     STORAGE-AQUEOUS =  7888480298.6201       STORAGE-AQUEOUS =         834.6603     MST                              
                 WEL =  4585346032.7874                   WEL =     4853365.1144     SSM_WEL-1                        
                 CHD =       7.5562E-18                   CHD =           0.0000     SSM_CHD-1                        

           TOTAL OUT = 12473826331.4076             TOTAL OUT =     4854199.7747

            IN - OUT =      -3.4332E-05              IN - OUT =      -1.3318E-07

 PERCENT DISCREPANCY =          -0.00     PERCENT DISCREPANCY =          -0.00




         TIME SUMMARY AT END OF TIME STEP   26 IN STRESS PERIOD    2
                    SECONDS     MINUTES      HOURS       DAYS        YEARS
                    -----------------------------------------------------------
   TIME STEP LENGTH 2.16991E+06  36165.      602.75      25.115     6.87602E-02
 STRESS PERIOD TIME 5.64176E+07 9.40294E+05  15672.      652.98      1.7878    
         TOTAL TIME 1.35258E+08 2.25429E+06  37572.      1565.5      4.2861    


end timestep


start timestep kper="2" kstp="27" mode="normal"

 UBDSV1 SAVING  STORAGE-AQUEOUS ON UNIT   1029 AT TIME STEP     27, STRESS PERIOD      2
 UBDSV1 SAVING     FLOW-JA-FACE ON UNIT   1029 AT TIME STEP     27, STRESS PERIOD      2
 UBDSV06 SAVING  SOURCE-SINK MIX IN MODEL GWT_P06-MF6      PACKAGE GWT_P06-MF6     CONNECTED TO MODEL GWT_P06-MF6      PACKAGE SSM              ON UNIT   1029 AT TIME STEP     27, STRESS PERIOD      2
1
  CONCENTRATION IN LAYER   1 AT END OF TIME STEP  27 IN STRESS PERIOD    2
  ---------------------------------------------------------------------------

                1               2               3               4               5               6               7               8               9              10
               11              12              13              14              15              16              17              18              19              20
               21              22              23              24              25              26              27              28              29              30
               31
 ................................................................................................................................................................................................................................................................................................................................................................................................................................................................................................................
   1      0.00000        7.258567E-45    2.915745E-42    4.317833E-40   -1.473659E-38   -1.723906E-35   -3.452587E-33   -4.057837E-31   -3.238590E-29   -1.831120E-27
        -7.372768E-26   -2.079712E-24   -4.037359E-23   -5.576700E-22   -5.244091E-21   -3.472779E-20   -5.243955E-21   -5.576053E-22   -4.035837E-23   -2.077449E-24
        -7.353070E-26   -1.820912E-27   -3.205205E-29   -3.985531E-31   -3.345857E-33   -1.615814E-35   -7.363532E-39    4.636978E-40    2.991703E-42    7.324504E-45
          0.00000    
   2     7.258567E-45    2.297458E-42    3.993094E-40    7.927977E-39   -1.142964E-35   -2.808699E-33   -3.783382E-31   -3.439075E-29   -2.239755E-27   -1.064597E-25
        -3.683227E-24   -9.120578E-23   -1.593337E-21   -2.020153E-20   -1.666407E-19   -9.087287E-19   -1.666368E-19   -2.019952E-20   -1.592822E-21   -9.111914E-23
        -3.674563E-24   -1.059418E-25   -2.220072E-27   -3.388875E-29   -3.694394E-31   -2.697292E-33   -1.044848E-35    1.383629E-38    4.220993E-40    2.347565E-42
         7.325325E-45
   3     2.915745E-42    3.993094E-40    1.405646E-38   -8.657526E-36   -2.390829E-33   -3.523206E-31   -3.524051E-29   -2.555485E-27   -1.374877E-25   -5.510414E-24
        -1.631188E-22   -3.506586E-21   -5.440551E-20   -6.365337E-19   -4.727615E-18   -2.106436E-17   -4.727520E-18   -6.364808E-19   -5.439062E-20   -3.503676E-21
        -1.627791E-22   -5.486849E-24   -1.364478E-25   -2.524436E-27   -3.458571E-29   -3.423149E-31   -2.278885E-33   -7.742790E-36    1.945499E-38    4.223337E-40
         2.993213E-42
   4     4.317833E-40    7.927977E-39   -8.657526E-36   -2.242903E-33   -3.356015E-31   -3.527796E-29   -2.749804E-27   -1.619686E-25   -7.237065E-24   -2.439243E-22
        -6.121697E-21   -1.127913E-19   -1.544496E-18   -1.661241E-17   -1.246937E-16   -6.566038E-16   -1.246917E-16   -1.661138E-17   -1.544162E-18   -1.127115E-19
        -6.110464E-21   -2.430047E-22   -7.189668E-24   -1.603139E-25   -2.708574E-27   -3.451871E-29   -3.250426E-31   -2.130500E-33   -7.730782E-36    1.397520E-38
         4.647290E-40
   5    -1.473659E-38   -1.142964E-35   -2.390829E-33   -3.356015E-31   -3.519327E-29   -2.838408E-27   -1.774352E-25   -8.584437E-24   -3.191251E-22   -9.013543E-21
        -1.914364E-19   -3.090613E-18   -4.020189E-17   -5.047755E-16   -3.496205E-15   -7.423325E-15   -3.496148E-15   -5.047531E-16   -4.019650E-17   -3.088965E-18
        -1.911384E-19   -8.983893E-21   -3.173161E-22   -8.510362E-24   -1.752645E-25   -2.790823E-27   -3.438862E-29   -3.248661E-31   -2.275515E-33   -1.040855E-35
        -6.999772E-39
   6    -1.723906E-35   -2.808699E-33   -3.523206E-31   -3.527796E-29   -2.838408E-27   -1.826902E-25   -9.322423E-24   -3.729021E-22   -1.155445E-20   -2.756850E-19
        -5.185411E-18   -8.296612E-17   -1.330427E-15   -8.583673E-15    1.289141E-13    2.175404E-12    1.289149E-13   -8.583170E-15   -1.330316E-15   -8.294408E-17
        -5.179568E-18   -2.749334E-19   -1.149881E-20   -3.702030E-22   -9.229404E-24   -1.802839E-25   -2.789825E-27   -3.448987E-29   -3.417981E-31   -2.690328E-33
        -1.608116E-35
   7    -3.452587E-33   -3.783382E-31   -3.524051E-29   -2.749804E-27   -1.774352E-25   -9.322423E-24   -3.924698E-22   -1.305614E-20   -3.420274E-19   -7.287292E-18
        -1.363349E-16   -2.494605E-15   -1.474556E-15    1.471741E-12    4.132847E-11    4.351370E-10    4.132847E-11    1.471744E-12   -1.473034E-15   -2.494365E-15
        -1.362651E-16   -7.273509E-18   -3.407176E-19   -1.297934E-20   -3.893347E-22   -9.226964E-24   -1.751613E-25   -2.705902E-27   -3.453420E-29   -3.686410E-31
        -3.335338E-33
   8    -4.057837E-31   -3.439075E-29   -2.555485E-27   -1.619686E-25   -8.584437E-24   -3.729021E-22   -1.305614E-20   -3.673968E-19   -8.629384E-18   -1.816161E-16
        -3.530846E-15    4.257386E-14    6.582676E-12    2.764754E-10    6.305406E-09    6.121840E-08    6.305406E-09    2.764754E-10    6.582685E-12    4.257316E-14
        -3.530374E-15   -1.814701E-16   -8.607835E-18   -3.657858E-19   -1.297680E-20   -3.700418E-22   -8.504353E-24   -1.601512E-25   -2.520954E-27   -3.382687E-29
        -3.975973E-31
   9    -3.238590E-29   -2.239755E-27   -1.374877E-25   -7.237065E-24   -3.191251E-22   -1.155445E-20   -3.420274E-19   -8.629384E-18   -1.995096E-16   -4.081588E-15
         1.145764E-13    1.652723E-11    9.494023E-10    3.415955E-08    7.169999E-07    6.471563E-06    7.169999E-07    3.415955E-08    9.494021E-10    1.652727E-11
         1.145711E-13   -4.080891E-15   -1.993159E-16   -8.606913E-18   -3.406180E-19   -1.149312E-20   -3.170935E-22   -7.183046E-24   -1.362886E-25   -2.216843E-27
        -3.199434E-29
  10    -1.831120E-27   -1.064597E-25   -5.510414E-24   -2.439243E-22   -9.013543E-21   -2.756850E-19   -7.287292E-18   -1.816161E-16   -4.081588E-15    1.521794E-13
         2.570185E-11    1.912000E-09    9.520482E-08    3.090769E-06    5.865735E-05    4.793329E-04    5.865735E-05    3.090769E-06    9.520482E-08    1.912000E-09
         2.570192E-11    1.521697E-13   -4.080884E-15   -1.814563E-16   -7.271709E-18   -2.748169E-19   -8.978738E-21   -2.428308E-22   -5.482098E-24   -1.058321E-25
        -1.818662E-27
  11    -7.372768E-26   -3.683227E-24   -1.631188E-22   -6.121697E-21   -1.914364E-19   -5.185411E-18   -1.363349E-16   -3.530846E-15    1.145764E-13    2.570185E-11
         2.399804E-09    1.547751E-07    6.817529E-06    1.928370E-04    3.165252E-03    2.244402E-02    3.165252E-03    1.928370E-04    6.817529E-06    1.547751E-07
         2.399805E-09    2.570192E-11    1.145689E-13   -3.530368E-15   -1.362527E-16   -5.178328E-18   -1.910700E-19   -6.107739E-21   -1.626930E-22   -3.672287E-24
        -7.347734E-26
  12    -2.079712E-24   -9.120578E-23   -3.506586E-21   -1.127913E-19   -3.090613E-18   -8.296612E-17   -2.494605E-15    4.257386E-14    1.652723E-11    1.912000E-09
         1.547751E-07    8.760754E-06    3.274293E-04    7.575495E-03    9.980456E-02    0.569181        9.980456E-02    7.575495E-03    3.274293E-04    8.760754E-06
         1.547751E-07    1.912000E-09    1.652728E-11    4.257171E-14   -2.494344E-15   -8.293899E-17   -3.088522E-18   -1.126889E-19   -3.502826E-21   -9.109307E-23
        -2.076750E-24
  13    -4.037359E-23   -1.593337E-21   -5.440551E-20   -1.544496E-18   -4.020189E-17   -1.330427E-15   -1.474556E-15    6.582676E-12    9.494023E-10    9.520482E-08
         6.817529E-06    3.274293E-04    9.757171E-03    0.167058         1.54998         6.18025         1.54998        0.167058        9.757171E-03    3.274293E-04
         6.817529E-06    9.520482E-08    9.494021E-10    6.582687E-12   -1.473014E-15   -1.330299E-15   -4.019526E-17   -1.544074E-18   -5.438651E-20   -1.592675E-21
        -4.035387E-23
  14    -5.576700E-22   -2.020153E-20   -6.365337E-19   -1.661241E-17   -5.047755E-16   -8.583673E-15    1.471741E-12    2.764754E-10    3.415955E-08    3.090769E-06
         1.928370E-04    7.575495E-03    0.167058         1.84024         9.87619         23.7251         9.87619         1.84024        0.167058        7.575495E-03
         1.928370E-04    3.090769E-06    3.415955E-08    2.764754E-10    1.471744E-12   -8.583104E-15   -5.047495E-16   -1.661118E-17   -6.364703E-19   -2.019910E-20
        -5.575915E-22
  15    -5.244091E-21   -1.666407E-19   -4.727615E-18   -1.246937E-16   -3.496205E-15    1.289141E-13    4.132847E-11    6.305406E-09    7.169999E-07    5.865735E-05
         3.165252E-03    9.980456E-02     1.54998         9.87619         29.1914         41.7525         29.1914         9.87619         1.54998        9.980456E-02
         3.165252E-03    5.865735E-05    7.169999E-07    6.305406E-09    4.132847E-11    1.289150E-13   -3.496140E-15   -1.246915E-16   -4.727509E-18   -1.666363E-19
        -5.243939E-21
  16    -3.472779E-20   -9.087287E-19   -2.106436E-17   -6.566038E-16   -7.423325E-15    2.175404E-12    4.351370E-10    6.121840E-08    6.471563E-06    4.793329E-04
         2.244402E-02    0.569181         6.18025         23.7251         41.7525         54.2220         41.7525         23.7251         6.18025        0.569181    
         2.244402E-02    4.793329E-04    6.471563E-06    6.121840E-08    4.351370E-10    2.175404E-12   -7.423324E-15   -6.566038E-16   -2.106436E-17   -9.087288E-19
        -3.472779E-20
  17    -5.243955E-21   -1.666368E-19   -4.727520E-18   -1.246917E-16   -3.496148E-15    1.289149E-13    4.132847E-11    6.305406E-09    7.169999E-07    5.865735E-05
         3.165252E-03    9.980456E-02     1.54998         9.87619         29.1914         41.7525         29.1914         9.87619         1.54998        9.980456E-02
         3.165252E-03    5.865735E-05    7.169999E-07    6.305406E-09    4.132847E-11    1.289141E-13   -3.496205E-15   -1.246937E-16   -4.727615E-18   -1.666407E-19
        -5.244091E-21
  18    -5.576053E-22   -2.019952E-20   -6.364808E-19   -1.661138E-17   -5.047531E-16   -8.583170E-15    1.471744E-12    2.764754E-10    3.415955E-08    3.090769E-06
         1.928370E-04    7.575495E-03    0.167058         1.84024         9.87619         23.7251         9.87619         1.84024        0.167058        7.575495E-03
         1.928370E-04    3.090769E-06    3.415955E-08    2.764754E-10    1.471741E-12   -8.583672E-15   -5.047754E-16   -1.661241E-17   -6.365337E-19   -2.020152E-20
        -5.576700E-22
  19    -4.035837E-23   -1.592822E-21   -5.439062E-20   -1.544162E-18   -4.019650E-17   -1.330316E-15   -1.473034E-15    6.582685E-12    9.494021E-10    9.520482E-08
         6.817529E-06    3.274293E-04    9.757171E-03    0.167058         1.54998         6.18025         1.54998        0.167058        9.757171E-03    3.274293E-04
         6.817529E-06    9.520482E-08    9.494023E-10    6.582676E-12   -1.474555E-15   -1.330427E-15   -4.020189E-17   -1.544496E-18   -5.440551E-20   -1.593337E-21
        -4.037359E-23
  20    -2.077449E-24   -9.111914E-23   -3.503676E-21   -1.127115E-19   -3.088965E-18   -8.294408E-17   -2.494365E-15    4.257316E-14    1.652727E-11    1.912000E-09
         1.547751E-07    8.760754E-06    3.274293E-04    7.575495E-03    9.980456E-02    0.569181        9.980456E-02    7.575495E-03    3.274293E-04    8.760754E-06
         1.547751E-07    1.912000E-09    1.652723E-11    4.257386E-14   -2.494605E-15   -8.296611E-17   -3.090613E-18   -1.127913E-19   -3.506586E-21   -9.120578E-23
        -2.079712E-24
  21    -7.353070E-26   -3.674563E-24   -1.627791E-22   -6.110464E-21   -1.911384E-19   -5.179568E-18   -1.362651E-16   -3.530374E-15    1.145711E-13    2.570192E-11
         2.399805E-09    1.547751E-07    6.817529E-06    1.928370E-04    3.165252E-03    2.244402E-02    3.165252E-03    1.928370E-04    6.817529E-06    1.547751E-07
         2.399804E-09    2.570185E-11    1.145764E-13   -3.530846E-15   -1.363349E-16   -5.185411E-18   -1.914364E-19   -6.121697E-21   -1.631188E-22   -3.683227E-24
        -7.372768E-26
  22    -1.820912E-27   -1.059418E-25   -5.486849E-24   -2.430047E-22   -8.983893E-21   -2.749334E-19   -7.273509E-18   -1.814701E-16   -4.080891E-15    1.521697E-13
         2.570192E-11    1.912000E-09    9.520482E-08    3.090769E-06    5.865735E-05    4.793329E-04    5.865735E-05    3.090769E-06    9.520482E-08    1.912000E-09
         2.570185E-11    1.521794E-13   -4.081588E-15   -1.816161E-16   -7.287292E-18   -2.756850E-19   -9.013543E-21   -2.439243E-22   -5.510414E-24   -1.064597E-25
        -1.831120E-27
  23    -3.205205E-29   -2.220072E-27   -1.364478E-25   -7.189668E-24   -3.173161E-22   -1.149881E-20   -3.407176E-19   -8.607835E-18   -1.993159E-16   -4.080884E-15
         1.145689E-13    1.652728E-11    9.494021E-10    3.415955E-08    7.169999E-07    6.471563E-06    7.169999E-07    3.415955E-08    9.494023E-10    1.652723E-11
         1.145764E-13   -4.081588E-15   -1.995096E-16   -8.629385E-18   -3.420274E-19   -1.155445E-20   -3.191251E-22   -7.237065E-24   -1.374877E-25   -2.239755E-27
        -3.238590E-29
  24    -3.985531E-31   -3.388875E-29   -2.524436E-27   -1.603139E-25   -8.510362E-24   -3.702030E-22   -1.297934E-20   -3.657858E-19   -8.606913E-18   -1.814563E-16
        -3.530368E-15    4.257171E-14    6.582687E-12    2.764754E-10    6.305406E-09    6.121840E-08    6.305406E-09    2.764754E-10    6.582676E-12    4.257386E-14
        -3.530846E-15   -1.816161E-16   -8.629385E-18   -3.673968E-19   -1.305614E-20   -3.729021E-22   -8.584437E-24   -1.619686E-25   -2.555485E-27   -3.439075E-29
        -4.057837E-31
  25    -3.345857E-33   -3.694394E-31   -3.458571E-29   -2.708574E-27   -1.752645E-25   -9.229404E-24   -3.893347E-22   -1.297680E-20   -3.406180E-19   -7.271709E-18
        -1.362527E-16   -2.494344E-15   -1.473014E-15    1.471744E-12    4.132847E-11    4.351370E-10    4.132847E-11    1.471741E-12   -1.474555E-15   -2.494605E-15
        -1.363349E-16   -7.287292E-18   -3.420274E-19   -1.305614E-20   -3.924698E-22   -9.322423E-24   -1.774352E-25   -2.749804E-27   -3.524051E-29   -3.783382E-31
        -3.452587E-33
  26    -1.615814E-35   -2.697292E-33   -3.423149E-31   -3.451871E-29   -2.790823E-27   -1.802839E-25   -9.226964E-24   -3.700418E-22   -1.149312E-20   -2.748169E-19
        -5.178328E-18   -8.293899E-17   -1.330299E-15   -8.583104E-15    1.289150E-13    2.175404E-12    1.289141E-13   -8.583672E-15   -1.330427E-15   -8.296611E-17
        -5.185411E-18   -2.756850E-19   -1.155445E-20   -3.729021E-22   -9.322423E-24   -1.826902E-25   -2.838408E-27   -3.527796E-29   -3.523206E-31   -2.808699E-33
        -1.723906E-35
  27    -7.363532E-39   -1.044848E-35   -2.278885E-33   -3.250426E-31   -3.438862E-29   -2.789825E-27   -1.751613E-25   -8.504353E-24   -3.170935E-22   -8.978738E-21
        -1.910700E-19   -3.088522E-18   -4.019526E-17   -5.047495E-16   -3.496140E-15   -7.423324E-15   -3.496205E-15   -5.047754E-16   -4.020189E-17   -3.090613E-18
        -1.914364E-19   -9.013543E-21   -3.191251E-22   -8.584437E-24   -1.774352E-25   -2.838408E-27   -3.519327E-29   -3.356015E-31   -2.390829E-33   -1.142964E-35
        -1.473659E-38
  28     4.636978E-40    1.383629E-38   -7.742790E-36   -2.130500E-33   -3.248661E-31   -3.448987E-29   -2.705902E-27   -1.601512E-25   -7.183046E-24   -2.428308E-22
        -6.107739E-21   -1.126889E-19   -1.544074E-18   -1.661118E-17   -1.246915E-16   -6.566038E-16   -1.246937E-16   -1.661241E-17   -1.544496E-18   -1.127913E-19
        -6.121697E-21   -2.439243E-22   -7.237065E-24   -1.619686E-25   -2.749804E-27   -3.527796E-29   -3.356015E-31   -2.242903E-33   -8.657525E-36    7.927979E-39
         4.317833E-40
  29     2.991703E-42    4.220993E-40    1.945499E-38   -7.730782E-36   -2.275515E-33   -3.417981E-31   -3.453420E-29   -2.520954E-27   -1.362886E-25   -5.482098E-24
        -1.626930E-22   -3.502826E-21   -5.438651E-20   -6.364703E-19   -4.727509E-18   -2.106436E-17   -4.727615E-18   -6.365337E-19   -5.440551E-20   -3.506586E-21
        -1.631188E-22   -5.510414E-24   -1.374877E-25   -2.555485E-27   -3.524051E-29   -3.523206E-31   -2.390829E-33   -8.657525E-36    1.405646E-38    3.993095E-40
         2.915745E-42
  30     7.324504E-45    2.347565E-42    4.223337E-40    1.397520E-38   -1.040855E-35   -2.690328E-33   -3.686410E-31   -3.382687E-29   -2.216843E-27   -1.058321E-25
        -3.672287E-24   -9.109307E-23   -1.592675E-21   -2.019910E-20   -1.666363E-19   -9.087288E-19   -1.666407E-19   -2.020152E-20   -1.593337E-21   -9.120578E-23
        -3.683227E-24   -1.064597E-25   -2.239755E-27   -3.439075E-29   -3.783382E-31   -2.808699E-33   -1.142964E-35    7.927979E-39    3.993095E-40    2.297458E-42
         7.258567E-45
  31      0.00000        7.325325E-45    2.993213E-42    4.647290E-40   -6.999772E-39   -1.608116E-35   -3.335338E-33   -3.975973E-31   -3.199434E-29   -1.818662E-27
        -7.347734E-26   -2.076750E-24   -4.035387E-23   -5.575915E-22   -5.243939E-21   -3.472779E-20   -5.244091E-21   -5.576700E-22   -4.037359E-23   -2.079712E-24
        -7.372768E-26   -1.831120E-27   -3.238590E-29   -4.057837E-31   -3.452587E-33   -1.723906E-35   -1.473659E-38    4.317833E-40    2.915745E-42    7.258567E-45
          0.00000    

 CONCENTRATION WILL BE SAVED ON UNIT 1030 AT END OF TIME STEP   27, STRESS PERIOD    2


  MASS BUDGET FOR ENTIRE MODEL AT END OF TIME STEP   27, STRESS PERIOD   2
  ---------------------------------------------------------------------------------------------------

     CUMULATIVE MASS      M       RATES FOR THIS TIME STEP      M/T          PACKAGE NAME    
     ------------------                 ------------------------                     ----------------

           IN:                                      IN:
           ---                                      ---
     STORAGE-AQUEOUS =  4707501840.0344       STORAGE-AQUEOUS =     4685527.1015     MST                              
                 WEL =  7884000000.0000                   WEL =           0.0000     SSM_WEL-1                        
                 CHD =           0.0000                   CHD =           0.0000     SSM_CHD-1                        

            TOTAL IN = 12591501840.0344              TOTAL IN =     4685527.1015

          OUT:                                     OUT:
          ----                                     ----
     STORAGE-AQUEOUS =  7888499015.5749       STORAGE-AQUEOUS =         745.2596     MST                              
                 WEL =  4703002824.4596                   WEL =     4684781.8419     SSM_WEL-1                        
                 CHD =       7.5562E-18                   CHD =           0.0000     SSM_CHD-1                        

           TOTAL OUT = 12591501840.0345             TOTAL OUT =     4685527.1015

            IN - OUT =      -3.6240E-05              IN - OUT =      -1.2852E-07

 PERCENT DISCREPANCY =          -0.00     PERCENT DISCREPANCY =          -0.00




         TIME SUMMARY AT END OF TIME STEP   27 IN STRESS PERIOD    2
                    SECONDS     MINUTES      HOURS       DAYS        YEARS
                    -----------------------------------------------------------
   TIME STEP LENGTH 2.16991E+06  36165.      602.75      25.115     6.87602E-02
 STRESS PERIOD TIME 5.85875E+07 9.76459E+05  16274.      678.10      1.8565    
         TOTAL TIME 1.37428E+08 2.29046E+06  38174.      1590.6      4.3548    


end timestep


start timestep kper="2" kstp="28" mode="normal"

 UBDSV1 SAVING  STORAGE-AQUEOUS ON UNIT   1029 AT TIME STEP     28, STRESS PERIOD      2
 UBDSV1 SAVING     FLOW-JA-FACE ON UNIT   1029 AT TIME STEP     28, STRESS PERIOD      2
 UBDSV06 SAVING  SOURCE-SINK MIX IN MODEL GWT_P06-MF6      PACKAGE GWT_P06-MF6     CONNECTED TO MODEL GWT_P06-MF6      PACKAGE SSM              ON UNIT   1029 AT TIME STEP     28, STRESS PERIOD      2
1
  CONCENTRATION IN LAYER   1 AT END OF TIME STEP  28 IN STRESS PERIOD    2
  ---------------------------------------------------------------------------

                1               2               3               4               5               6               7               8               9              10
               11              12              13              14              15              16              17              18              19              20
               21              22              23              24              25              26              27              28              29              30
               31
 ................................................................................................................................................................................................................................................................................................................................................................................................................................................................................................................
   1      0.00000        7.603792E-45    3.008574E-42    4.277824E-40   -2.167762E-38   -1.899981E-35   -3.704791E-33   -4.297488E-31   -3.397747E-29   -1.906103E-27
        -7.622204E-26   -2.137678E-24   -4.132370E-23   -5.687229E-22   -5.327276E-21   -3.502972E-20   -5.327138E-21   -5.686575E-22   -4.130826E-23   -2.135375E-24
        -7.602074E-26   -1.895619E-27   -3.363263E-29   -4.222337E-31   -3.593128E-33   -1.786090E-35   -1.384771E-38    4.620089E-40    3.091313E-42    7.678659E-45
          0.00000    
   2     7.603792E-45    2.366116E-42    4.005002E-40    3.907758E-39   -1.266342E-35   -3.011855E-33   -4.004031E-31   -3.607772E-29   -2.332731E-27   -1.101659E-25
        -3.789040E-24   -9.334418E-23   -1.624348E-21   -2.052511E-20   -1.687860E-19   -9.148287E-19   -1.687821E-19   -2.052309E-20   -1.623828E-21   -9.325630E-23
        -3.780217E-24   -1.096361E-25   -2.312494E-27   -3.555886E-29   -3.911560E-31   -2.895451E-33   -1.163233E-35    1.015742E-38    4.248234E-40    2.420524E-42
         7.679594E-45
   3     3.008574E-42    4.005002E-40    1.087839E-38   -9.639049E-36   -2.561710E-33   -3.724715E-31   -3.694454E-29   -2.661133E-27   -1.423150E-25   -5.671922E-24
        -1.670189E-22   -3.574009E-21   -5.526989E-20   -6.445514E-19   -4.781297E-18   -2.120284E-17   -4.781202E-18   -6.444982E-19   -5.525488E-20   -3.571068E-21
        -1.666743E-22   -5.647905E-24   -1.412503E-25   -2.629192E-27   -3.626772E-29   -3.620808E-31   -2.444904E-33   -8.679591E-36    1.657892E-38    4.250774E-40
         3.092987E-42
   4     4.277824E-40    3.907758E-39   -9.639049E-36   -2.402325E-33   -3.545126E-31   -3.695660E-29   -2.862144E-27   -1.676309E-25   -7.450334E-24   -2.498460E-22
        -6.241515E-21   -1.146021E-19   -1.566791E-18   -1.678504E-17   -1.255799E-16   -6.519971E-16   -1.255779E-16   -1.678401E-17   -1.566455E-18   -1.145218E-19
        -6.230162E-21   -2.489125E-22   -7.401997E-24   -1.659357E-25   -2.819718E-27   -3.617198E-29   -3.435533E-31   -2.285104E-33   -8.666892E-36    1.030598E-38
         4.631305E-40
   5    -2.167762E-38   -1.266342E-35   -2.561710E-33   -3.545126E-31   -3.685633E-29   -2.953292E-27   -1.835912E-25   -8.836792E-24   -3.269220E-22   -9.193658E-21
        -1.946543E-19   -3.140156E-18   -4.077301E-17   -5.045415E-16   -3.359662E-15   -5.650842E-15   -3.359605E-15   -5.045191E-16   -4.076760E-17   -3.138505E-18
        -1.943545E-19   -9.163680E-21   -3.250844E-22   -8.761210E-24   -1.813668E-25   -2.904324E-27   -3.602483E-29   -3.433693E-31   -2.441366E-33   -1.159003E-35
        -1.345737E-38
   6    -1.899981E-35   -3.011855E-33   -3.724715E-31   -3.695660E-29   -2.953292E-27   -1.890066E-25   -9.595559E-24   -3.820232E-22   -1.178844E-20   -2.805097E-19
        -5.274295E-18   -8.407969E-17   -1.318047E-15   -7.159400E-15    1.626164E-13    2.497003E-12    1.626172E-13   -7.158899E-15   -1.317936E-15   -8.405775E-17
        -5.268446E-18   -2.797533E-19   -1.173216E-20   -3.792805E-22   -9.500623E-24   -1.865404E-25   -2.903294E-27   -3.614207E-29   -3.615416E-31   -2.888132E-33
        -1.777917E-35
   7    -3.704791E-33   -4.004031E-31   -3.694454E-29   -2.862144E-27   -1.835912E-25   -9.595559E-24   -4.020681E-22   -1.332209E-20   -3.481489E-19   -7.415551E-18
        -1.378335E-16   -2.422428E-15    5.407539E-15    1.720484E-12    4.653645E-11    4.815421E-10    4.653644E-11    1.720487E-12    5.409044E-15   -2.422189E-15
        -1.377643E-16   -7.401761E-18   -3.468305E-19   -1.324440E-20   -3.988819E-22   -9.498128E-24   -1.812608E-25   -2.816962E-27   -3.621431E-29   -3.903228E-31
        -3.582063E-33
   8    -4.297488E-31   -3.607772E-29   -2.661133E-27   -1.676309E-25   -8.836792E-24   -3.820232E-22   -1.332209E-20   -3.740178E-19   -8.782192E-18   -1.831716E-16
        -3.342418E-15    6.186314E-14    7.560608E-12    3.089201E-10    6.929452E-09    6.628410E-08    6.929451E-09    3.089200E-10    7.560616E-12    6.186249E-14
        -3.341954E-15   -1.830273E-16   -8.760635E-18   -3.723960E-19   -1.324183E-20   -3.791166E-22   -8.755070E-24   -1.657687E-25   -2.625600E-27   -3.549472E-29
        -4.212365E-31
   9    -3.397747E-29   -2.332731E-27   -1.423150E-25   -7.450334E-24   -3.269220E-22   -1.178844E-20   -3.481489E-19   -8.782192E-18   -2.010199E-16   -3.788859E-15
         1.495466E-13    1.884105E-11    1.055712E-09    3.731617E-08    7.705342E-07    6.847779E-06    7.705342E-07    3.731617E-08    1.055711E-09    1.884109E-11
         1.495415E-13   -3.788178E-15   -2.008285E-16   -8.759714E-18   -3.467302E-19   -1.172640E-20   -3.248582E-22   -7.395236E-24   -1.410870E-25   -2.309169E-27
        -3.357287E-29
  10    -1.906103E-27   -1.101659E-25   -5.671922E-24   -2.498460E-22   -9.193658E-21   -2.805097E-19   -7.415551E-18   -1.831716E-16   -3.788859E-15    1.946642E-13
         2.921105E-11    2.119977E-09    1.035418E-07    3.299853E-06    6.155576E-05    4.951076E-04    6.155576E-05    3.299853E-06    1.035418E-07    2.119977E-09
         2.921112E-11    1.946549E-13   -3.788173E-15   -1.830136E-16   -7.399962E-18   -2.796361E-19   -9.158467E-21   -2.487358E-22   -5.643061E-24   -1.095238E-25
        -1.893305E-27
  11    -7.622204E-26   -3.789040E-24   -1.670189E-22   -6.241515E-21   -1.946543E-19   -5.274295E-18   -1.378335E-16   -3.342418E-15    1.495466E-13    2.921105E-11
         2.658269E-09    1.679315E-07    7.246565E-06    2.009668E-04    3.240621E-03    2.261985E-02    3.240621E-03    2.009668E-04    7.246565E-06    1.679315E-07
         2.658270E-09    2.921112E-11    1.495394E-13   -3.341951E-15   -1.377521E-16   -5.267206E-18   -1.942857E-19   -6.227408E-21   -1.665869E-22   -3.777899E-24
        -7.596620E-26
  12    -2.137678E-24   -9.334418E-23   -3.574009E-21   -1.146021E-19   -3.140156E-18   -8.407969E-17   -2.422428E-15    6.186314E-14    1.884105E-11    2.119977E-09
         1.679315E-07    9.297533E-06    3.398787E-04    7.701663E-03    9.968750E-02    0.560368        9.968750E-02    7.701663E-03    3.398787E-04    9.297533E-06
         1.679315E-07    2.119978E-09    1.884109E-11    6.186107E-14   -2.422169E-15   -8.405271E-17   -3.138061E-18   -1.144991E-19   -3.570209E-21   -9.322987E-23
        -2.134664E-24
  13    -4.132370E-23   -1.624348E-21   -5.526989E-20   -1.566791E-18   -4.077301E-17   -1.318047E-15    5.407539E-15    7.560608E-12    1.055712E-09    1.035418E-07
         7.246565E-06    3.398787E-04    9.893018E-03    0.165825         1.51432         5.97949         1.51432        0.165825        9.893018E-03    3.398787E-04
         7.246565E-06    1.035418E-07    1.055711E-09    7.560618E-12    5.409065E-15   -1.317919E-15   -4.076636E-17   -1.566367E-18   -5.525074E-20   -1.623679E-21
        -4.130370E-23
  14    -5.687229E-22   -2.052511E-20   -6.445514E-19   -1.678504E-17   -5.045415E-16   -7.159400E-15    1.720484E-12    3.089201E-10    3.731617E-08    3.299853E-06
         2.009668E-04    7.701663E-03    0.165825         1.79138         9.52085         22.8307         9.52085         1.79138        0.165825        7.701663E-03
         2.009668E-04    3.299853E-06    3.731617E-08    3.089200E-10    1.720487E-12   -7.158834E-15   -5.045155E-16   -1.678381E-17   -6.444877E-19   -2.052267E-20
        -5.686435E-22
  15    -5.327276E-21   -1.687860E-19   -4.781297E-18   -1.255799E-16   -3.359662E-15    1.626164E-13    4.653645E-11    6.929452E-09    7.705342E-07    6.155576E-05
         3.240621E-03    9.968750E-02     1.51432         9.52085         28.1310         40.2190         28.1310         9.52085         1.51432        9.968750E-02
         3.240621E-03    6.155576E-05    7.705342E-07    6.929451E-09    4.653644E-11    1.626173E-13   -3.359596E-15   -1.255776E-16   -4.781190E-18   -1.687816E-19
        -5.327122E-21
  16    -3.502972E-20   -9.148287E-19   -2.120284E-17   -6.519971E-16   -5.650842E-15    2.497003E-12    4.815421E-10    6.628410E-08    6.847779E-06    4.951076E-04
         2.261985E-02    0.560368         5.97949         22.8307         40.2190         52.3213         40.2190         22.8307         5.97949        0.560368    
         2.261985E-02    4.951076E-04    6.847779E-06    6.628410E-08    4.815421E-10    2.497003E-12   -5.650841E-15   -6.519972E-16   -2.120284E-17   -9.148287E-19
        -3.502972E-20
  17    -5.327138E-21   -1.687821E-19   -4.781202E-18   -1.255779E-16   -3.359605E-15    1.626172E-13    4.653644E-11    6.929451E-09    7.705342E-07    6.155576E-05
         3.240621E-03    9.968750E-02     1.51432         9.52085         28.1310         40.2190         28.1310         9.52085         1.51432        9.968750E-02
         3.240621E-03    6.155576E-05    7.705342E-07    6.929452E-09    4.653645E-11    1.626164E-13   -3.359662E-15   -1.255799E-16   -4.781297E-18   -1.687860E-19
        -5.327275E-21
  18    -5.686575E-22   -2.052309E-20   -6.444982E-19   -1.678401E-17   -5.045191E-16   -7.158899E-15    1.720487E-12    3.089200E-10    3.731617E-08    3.299853E-06
         2.009668E-04    7.701663E-03    0.165825         1.79138         9.52085         22.8307         9.52085         1.79138        0.165825        7.701663E-03
         2.009668E-04    3.299853E-06    3.731617E-08    3.089201E-10    1.720484E-12   -7.159400E-15   -5.045415E-16   -1.678504E-17   -6.445514E-19   -2.052511E-20
        -5.687229E-22
  19    -4.130826E-23   -1.623828E-21   -5.525488E-20   -1.566455E-18   -4.076760E-17   -1.317936E-15    5.409044E-15    7.560616E-12    1.055711E-09    1.035418E-07
         7.246565E-06    3.398787E-04    9.893018E-03    0.165825         1.51432         5.97949         1.51432        0.165825        9.893018E-03    3.398787E-04
         7.246565E-06    1.035418E-07    1.055712E-09    7.560608E-12    5.407540E-15   -1.318047E-15   -4.077301E-17   -1.566791E-18   -5.526989E-20   -1.624348E-21
        -4.132370E-23
  20    -2.135375E-24   -9.325630E-23   -3.571068E-21   -1.145218E-19   -3.138505E-18   -8.405775E-17   -2.422189E-15    6.186249E-14    1.884109E-11    2.119977E-09
         1.679315E-07    9.297533E-06    3.398787E-04    7.701663E-03    9.968750E-02    0.560368        9.968750E-02    7.701663E-03    3.398787E-04    9.297533E-06
         1.679315E-07    2.119977E-09    1.884105E-11    6.186314E-14   -2.422428E-15   -8.407969E-17   -3.140156E-18   -1.146021E-19   -3.574009E-21   -9.334418E-23
        -2.137678E-24
  21    -7.602074E-26   -3.780217E-24   -1.666743E-22   -6.230162E-21   -1.943545E-19   -5.268446E-18   -1.377643E-16   -3.341954E-15    1.495415E-13    2.921112E-11
         2.658270E-09    1.679315E-07    7.246565E-06    2.009668E-04    3.240621E-03    2.261985E-02    3.240621E-03    2.009668E-04    7.246565E-06    1.679315E-07
         2.658269E-09    2.921105E-11    1.495466E-13   -3.342418E-15   -1.378335E-16   -5.274295E-18   -1.946543E-19   -6.241515E-21   -1.670189E-22   -3.789040E-24
        -7.622204E-26
  22    -1.895619E-27   -1.096361E-25   -5.647905E-24   -2.489125E-22   -9.163680E-21   -2.797533E-19   -7.401761E-18   -1.830273E-16   -3.788178E-15    1.946549E-13
         2.921112E-11    2.119978E-09    1.035418E-07    3.299853E-06    6.155576E-05    4.951076E-04    6.155576E-05    3.299853E-06    1.035418E-07    2.119977E-09
         2.921105E-11    1.946642E-13   -3.788859E-15   -1.831716E-16   -7.415551E-18   -2.805097E-19   -9.193658E-21   -2.498460E-22   -5.671922E-24   -1.101659E-25
        -1.906103E-27
  23    -3.363263E-29   -2.312494E-27   -1.412503E-25   -7.401997E-24   -3.250844E-22   -1.173216E-20   -3.468305E-19   -8.760635E-18   -2.008285E-16   -3.788173E-15
         1.495394E-13    1.884109E-11    1.055711E-09    3.731617E-08    7.705342E-07    6.847779E-06    7.705342E-07    3.731617E-08    1.055712E-09    1.884105E-11
         1.495466E-13   -3.788859E-15   -2.010199E-16   -8.782192E-18   -3.481489E-19   -1.178844E-20   -3.269220E-22   -7.450334E-24   -1.423150E-25   -2.332731E-27
        -3.397747E-29
  24    -4.222337E-31   -3.555886E-29   -2.629192E-27   -1.659357E-25   -8.761210E-24   -3.792805E-22   -1.324440E-20   -3.723960E-19   -8.759714E-18   -1.830136E-16
        -3.341951E-15    6.186107E-14    7.560618E-12    3.089200E-10    6.929451E-09    6.628410E-08    6.929452E-09    3.089201E-10    7.560608E-12    6.186314E-14
        -3.342418E-15   -1.831716E-16   -8.782192E-18   -3.740178E-19   -1.332209E-20   -3.820232E-22   -8.836792E-24   -1.676309E-25   -2.661133E-27   -3.607772E-29
        -4.297488E-31
  25    -3.593128E-33   -3.911560E-31   -3.626772E-29   -2.819718E-27   -1.813668E-25   -9.500623E-24   -3.988819E-22   -1.324183E-20   -3.467302E-19   -7.399962E-18
        -1.377521E-16   -2.422169E-15    5.409065E-15    1.720487E-12    4.653644E-11    4.815421E-10    4.653645E-11    1.720484E-12    5.407540E-15   -2.422428E-15
        -1.378335E-16   -7.415551E-18   -3.481489E-19   -1.332209E-20   -4.020681E-22   -9.595559E-24   -1.835912E-25   -2.862144E-27   -3.694454E-29   -4.004031E-31
        -3.704791E-33
  26    -1.786090E-35   -2.895451E-33   -3.620808E-31   -3.617198E-29   -2.904324E-27   -1.865404E-25   -9.498128E-24   -3.791166E-22   -1.172640E-20   -2.796361E-19
        -5.267206E-18   -8.405271E-17   -1.317919E-15   -7.158834E-15    1.626173E-13    2.497003E-12    1.626164E-13   -7.159400E-15   -1.318047E-15   -8.407969E-17
        -5.274295E-18   -2.805097E-19   -1.178844E-20   -3.820232E-22   -9.595559E-24   -1.890066E-25   -2.953292E-27   -3.695660E-29   -3.724715E-31   -3.011855E-33
        -1.899981E-35
  27    -1.384771E-38   -1.163233E-35   -2.444904E-33   -3.435533E-31   -3.602483E-29   -2.903294E-27   -1.812608E-25   -8.755070E-24   -3.248582E-22   -9.158467E-21
        -1.942857E-19   -3.138061E-18   -4.076636E-17   -5.045155E-16   -3.359596E-15   -5.650841E-15   -3.359662E-15   -5.045415E-16   -4.077301E-17   -3.140156E-18
        -1.946543E-19   -9.193658E-21   -3.269220E-22   -8.836792E-24   -1.835912E-25   -2.953292E-27   -3.685633E-29   -3.545126E-31   -2.561710E-33   -1.266342E-35
        -2.167762E-38
  28     4.620089E-40    1.015742E-38   -8.679591E-36   -2.285104E-33   -3.433693E-31   -3.614207E-29   -2.816962E-27   -1.657687E-25   -7.395236E-24   -2.487358E-22
        -6.227408E-21   -1.144991E-19   -1.566367E-18   -1.678381E-17   -1.255776E-16   -6.519972E-16   -1.255799E-16   -1.678504E-17   -1.566791E-18   -1.146021E-19
        -6.241515E-21   -2.498460E-22   -7.450334E-24   -1.676309E-25   -2.862144E-27   -3.695660E-29   -3.545126E-31   -2.402324E-33   -9.639049E-36    3.907759E-39
         4.277825E-40
  29     3.091313E-42    4.248234E-40    1.657892E-38   -8.666892E-36   -2.441366E-33   -3.615416E-31   -3.621431E-29   -2.625600E-27   -1.410870E-25   -5.643061E-24
        -1.665869E-22   -3.570209E-21   -5.525074E-20   -6.444877E-19   -4.781190E-18   -2.120284E-17   -4.781297E-18   -6.445514E-19   -5.526989E-20   -3.574009E-21
        -1.670189E-22   -5.671922E-24   -1.423150E-25   -2.661133E-27   -3.694454E-29   -3.724715E-31   -2.561710E-33   -9.639049E-36    1.087840E-38    4.005002E-40
         3.008574E-42
  30     7.678659E-45    2.420524E-42    4.250774E-40    1.030598E-38   -1.159003E-35   -2.888132E-33   -3.903228E-31   -3.549472E-29   -2.309169E-27   -1.095238E-25
        -3.777899E-24   -9.322987E-23   -1.623679E-21   -2.052267E-20   -1.687816E-19   -9.148287E-19   -1.687860E-19   -2.052511E-20   -1.624348E-21   -9.334418E-23
        -3.789040E-24   -1.101659E-25   -2.332731E-27   -3.607772E-29   -4.004031E-31   -3.011855E-33   -1.266342E-35    3.907759E-39    4.005002E-40    2.366116E-42
         7.603793E-45
  31      0.00000        7.679594E-45    3.092987E-42    4.631305E-40   -1.345737E-38   -1.777917E-35   -3.582063E-33   -4.212365E-31   -3.357287E-29   -1.893305E-27
        -7.596620E-26   -2.134664E-24   -4.130370E-23   -5.686435E-22   -5.327122E-21   -3.502972E-20   -5.327275E-21   -5.687229E-22   -4.132370E-23   -2.137678E-24
        -7.622204E-26   -1.906103E-27   -3.397747E-29   -4.297488E-31   -3.704791E-33   -1.899981E-35   -2.167762E-38    4.277825E-40    3.008574E-42    7.603793E-45
          0.00000    

 CONCENTRATION WILL BE SAVED ON UNIT 1030 AT END OF TIME STEP   28, STRESS PERIOD    2


  MASS BUDGET FOR ENTIRE MODEL AT END OF TIME STEP   28, STRESS PERIOD   2
  ---------------------------------------------------------------------------------------------------

     CUMULATIVE MASS      M       RATES FOR THIS TIME STEP      M/T          PACKAGE NAME    
     ------------------                 ------------------------                     ----------------

           IN:                                      IN:
           ---                                      ---
     STORAGE-AQUEOUS =  4821051986.6777       STORAGE-AQUEOUS =     4521266.1129     MST                              
                 WEL =  7884000000.0000                   WEL =           0.0000     SSM_WEL-1                        
                 CHD =           0.0000                   CHD =           0.0000     SSM_CHD-1                        

            TOTAL IN = 12705051986.6777              TOTAL IN =     4521266.1129

          OUT:                                     OUT:
          ----                                     ----
     STORAGE-AQUEOUS =  7888516702.1489       STORAGE-AQUEOUS =         704.2325     MST                              
                 WEL =  4816535284.5289                   WEL =     4520561.8804     SSM_WEL-1                        
                 CHD =       7.5562E-18                   CHD =           0.0000     SSM_CHD-1                        

           TOTAL OUT = 12705051986.6778             TOTAL OUT =     4521266.1129

            IN - OUT =      -3.8147E-05              IN - OUT =      -1.2573E-07

 PERCENT DISCREPANCY =          -0.00     PERCENT DISCREPANCY =          -0.00




         TIME SUMMARY AT END OF TIME STEP   28 IN STRESS PERIOD    2
                    SECONDS     MINUTES      HOURS       DAYS        YEARS
                    -----------------------------------------------------------
   TIME STEP LENGTH 2.16991E+06  36165.      602.75      25.115     6.87602E-02
 STRESS PERIOD TIME 6.07574E+07 1.01262E+06  16877.      703.21      1.9253    
         TOTAL TIME 1.39597E+08 2.32662E+06  38777.      1615.7      4.4236    


end timestep


start timestep kper="2" kstp="29" mode="normal"

 UBDSV1 SAVING  STORAGE-AQUEOUS ON UNIT   1029 AT TIME STEP     29, STRESS PERIOD      2
 UBDSV1 SAVING     FLOW-JA-FACE ON UNIT   1029 AT TIME STEP     29, STRESS PERIOD      2
 UBDSV06 SAVING  SOURCE-SINK MIX IN MODEL GWT_P06-MF6      PACKAGE GWT_P06-MF6     CONNECTED TO MODEL GWT_P06-MF6      PACKAGE SSM              ON UNIT   1029 AT TIME STEP     29, STRESS PERIOD      2
1
  CONCENTRATION IN LAYER   1 AT END OF TIME STEP  29 IN STRESS PERIOD    2
  ---------------------------------------------------------------------------

                1               2               3               4               5               6               7               8               9              10
               11              12              13              14              15              16              17              18              19              20
               21              22              23              24              25              26              27              28              29              30
               31
 ................................................................................................................................................................................................................................................................................................................................................................................................................................................................................................................
   1      0.00000        7.959273E-45    3.100557E-42    4.217410E-40   -2.930714E-38   -2.088513E-35   -3.971461E-33   -4.548627E-31   -3.563294E-29   -1.983584E-27
        -7.878447E-26   -2.196939E-24   -4.229123E-23   -5.799370E-22   -5.411332E-21   -3.533325E-20   -5.411193E-21   -5.798707E-22   -4.227556E-23   -2.194595E-24
        -7.857877E-26   -1.972817E-27   -3.527680E-29   -4.470539E-31   -3.854674E-33   -1.968565E-35   -2.099680E-38    4.584166E-40    3.190548E-42    8.043840E-45
          0.00000    
   2     7.959273E-45    2.434714E-42    4.006394E-40   -5.272074E-40   -1.398333E-35   -3.226477E-33   -4.235175E-31   -3.783271E-29   -2.428855E-27   -1.139754E-25
        -3.897230E-24   -9.552105E-23   -1.655812E-21   -2.085229E-20   -1.709511E-19   -9.209659E-19   -1.709471E-19   -2.085024E-20   -1.655285E-21   -9.543191E-23
        -3.888246E-24   -1.134335E-25   -2.408051E-27   -3.729654E-29   -4.139106E-31   -3.104884E-33   -1.290014E-35    6.080632E-39    4.265821E-40    2.493710E-42
         8.044902E-45
   3     3.100557E-42    4.006394E-40    7.365739E-39   -1.068836E-35   -2.742069E-33   -3.935672E-31   -3.871682E-29   -2.770368E-27   -1.472785E-25   -5.837115E-24
        -1.709895E-22   -3.642428E-21   -5.614545E-20   -6.526420E-19   -4.835123E-18   -2.133622E-17   -4.835026E-18   -6.525886E-19   -5.613032E-20   -3.639456E-21
        -1.706398E-22   -5.812642E-24   -1.461884E-25   -2.737512E-27   -3.801736E-29   -3.827789E-31   -2.620218E-33   -9.682280E-36    1.338285E-38    4.268570E-40
         3.192400E-42
   4     4.217410E-40   -5.272074E-40   -1.068836E-35   -2.570521E-33   -3.743008E-31   -3.870183E-29   -2.978278E-27   -1.734533E-25   -7.668525E-24   -2.558769E-22
        -6.363178E-21   -1.164405E-19   -1.589342E-18   -1.695508E-17   -1.263488E-16   -6.463831E-16   -1.263468E-16   -1.695404E-17   -1.589005E-18   -1.163596E-19
        -6.351704E-21   -2.549293E-22   -7.619234E-24   -1.717169E-25   -2.934628E-27   -3.789111E-29   -3.629278E-31   -2.448304E-33   -9.668858E-36    6.239387E-39
         4.596351E-40
   5    -2.930714E-38   -1.398333E-35   -2.742069E-33   -3.743008E-31   -3.858506E-29   -3.072037E-27   -1.899210E-25   -9.094999E-24   -3.348654E-22   -9.376688E-21
        -1.979255E-19   -3.190236E-18   -4.132338E-17   -5.031861E-16   -3.197519E-15   -3.649545E-15   -3.197461E-15   -5.031636E-16   -4.131796E-17   -3.188582E-18
        -1.976238E-19   -9.346381E-21   -3.329991E-22   -9.017887E-24   -1.876418E-25   -3.021653E-27   -3.772597E-29   -3.627360E-31   -2.616506E-33   -1.285536E-35
        -2.057829E-38
   6    -2.088513E-35   -3.226477E-33   -3.935672E-31   -3.870183E-29   -3.072037E-27   -1.955009E-25   -9.875036E-24   -3.913178E-22   -1.202635E-20   -2.854168E-19
        -5.363785E-18   -8.510558E-17   -1.299444E-15   -5.524458E-15    2.001921E-13    2.850497E-12    2.001929E-13   -5.523958E-15   -1.299333E-15   -8.508374E-17
        -5.357932E-18   -2.846555E-19   -1.196943E-20   -3.885311E-22   -9.778154E-24   -1.929737E-25   -3.020592E-27   -3.786010E-29   -3.822166E-31   -3.097195E-33
        -1.959893E-35
   7    -3.971461E-33   -4.235175E-31   -3.871682E-29   -2.978278E-27   -1.899210E-25   -9.875036E-24   -4.118497E-22   -1.359259E-20   -3.543754E-19   -7.544105E-18
        -1.391009E-16   -2.330308E-15    1.316713E-14    1.996459E-12    5.222667E-11    5.314786E-10    5.222667E-11    1.996462E-12    1.316862E-14   -2.330071E-15
        -1.390323E-16   -7.530310E-18   -3.530484E-19   -1.351399E-20   -4.086119E-22   -9.775605E-24   -1.875329E-25   -2.931785E-27   -3.796198E-29   -4.130413E-31
        -3.843040E-33
   8    -4.548627E-31   -3.783271E-29   -2.770368E-27   -1.734533E-25   -9.094999E-24   -3.913178E-22   -1.359259E-20   -3.807522E-19   -8.934897E-18   -1.843259E-16
        -3.112462E-15    8.353959E-14    8.641095E-12    3.441584E-10    7.595795E-09    7.160378E-08    7.595795E-09    3.441584E-10    8.641103E-12    8.353899E-14
        -3.112006E-15   -1.841831E-16   -8.913335E-18   -3.791197E-19   -1.351139E-20   -3.883644E-22   -9.011614E-24   -1.715455E-25   -2.733810E-27   -3.723006E-29
        -4.460139E-31
   9    -3.563294E-29   -2.428855E-27   -1.472785E-25   -7.668525E-24   -3.348654E-22   -1.202635E-20   -3.543754E-19   -8.934897E-18   -2.020504E-16   -3.436691E-15
         1.887706E-13    2.138989E-11    1.170621E-09    4.066309E-08    8.262443E-07    7.232215E-06    8.262443E-07    4.066309E-08    1.170621E-09    2.138992E-11
         1.887657E-13   -3.436024E-15   -2.018611E-16   -8.912414E-18   -3.529474E-19   -1.196361E-20   -3.327691E-22   -7.612332E-24   -1.460210E-25   -2.404627E-27
        -3.521495E-29
  10    -1.983584E-27   -1.139754E-25   -5.837115E-24   -2.558769E-22   -9.376688E-21   -2.854168E-19   -7.544105E-18   -1.843259E-16   -3.436691E-15    2.422876E-13
         3.307067E-11    2.344080E-09    1.123342E-07    3.515650E-06    6.448450E-05    5.106940E-04    6.448450E-05    3.515650E-06    1.123342E-07    2.344080E-09
         3.307073E-11    2.422786E-13   -3.436021E-15   -1.841696E-16   -7.528511E-18   -2.845376E-19   -9.341109E-21   -2.547499E-22   -5.807702E-24   -1.133185E-25
        -1.970438E-27
  11    -7.878447E-26   -3.897230E-24   -1.709895E-22   -6.363178E-21   -1.979255E-19   -5.363785E-18   -1.391009E-16   -3.112462E-15    1.887706E-13    3.307067E-11
         2.936473E-09    1.817661E-07    7.686752E-06    2.090940E-04    3.313709E-03    2.277818E-02    3.313709E-03    2.090940E-04    7.686752E-06    1.817661E-07
         2.936474E-09    3.307073E-11    1.887636E-13   -3.112005E-15   -1.390202E-16   -5.356692E-18   -1.975545E-19   -6.348921E-21   -1.705512E-22   -3.885886E-24
        -7.852304E-26
  12    -2.196939E-24   -9.552105E-23   -3.642428E-21   -1.164405E-19   -3.190236E-18   -8.510558E-17   -2.330308E-15    8.353959E-14    2.138989E-11    2.344080E-09
         1.817661E-07    9.847049E-06    3.522353E-04    7.821105E-03    9.950420E-02    0.551543        9.950420E-02    7.821105E-03    3.522353E-04    9.847049E-06
         1.817661E-07    2.344080E-09    2.138993E-11    8.353761E-14   -2.330052E-15   -8.507874E-17   -3.188138E-18   -1.163368E-19   -3.638588E-21   -9.540512E-23
        -2.193872E-24
  13    -4.229123E-23   -1.655812E-21   -5.614545E-20   -1.589342E-18   -4.132338E-17   -1.299444E-15    1.316713E-14    8.641095E-12    1.170621E-09    1.123342E-07
         7.686752E-06    3.522353E-04    1.001974E-02    0.164505         1.47927         5.78572         1.47927        0.164505        1.001974E-02    3.522353E-04
         7.686752E-06    1.123342E-07    1.170621E-09    8.641105E-12    1.316864E-14   -1.299315E-15   -4.131673E-17   -1.588917E-18   -5.612616E-20   -1.655135E-21
        -4.227094E-23
  14    -5.799370E-22   -2.085229E-20   -6.526420E-19   -1.695508E-17   -5.031861E-16   -5.524458E-15    1.996459E-12    3.441584E-10    4.066309E-08    3.515650E-06
         2.090940E-04    7.821105E-03    0.164505         1.74367         9.17953         21.9716         9.17953         1.74367        0.164505        7.821105E-03
         2.090940E-04    3.515650E-06    4.066309E-08    3.441584E-10    1.996462E-12   -5.523893E-15   -5.031600E-16   -1.695385E-17   -6.525780E-19   -2.084982E-20
        -5.798566E-22
  15    -5.411332E-21   -1.709511E-19   -4.835123E-18   -1.263488E-16   -3.197519E-15    2.001921E-13    5.222667E-11    7.595795E-09    8.262443E-07    6.448450E-05
         3.313709E-03    9.950420E-02     1.47927         9.17953         27.1092         38.7385         27.1092         9.17953         1.47927        9.950420E-02
         3.313709E-03    6.448450E-05    8.262443E-07    7.595795E-09    5.222667E-11    2.001931E-13   -3.197453E-15   -1.263466E-16   -4.835015E-18   -1.709467E-19
        -5.411177E-21
  16    -3.533325E-20   -9.209659E-19   -2.133622E-17   -6.463831E-16   -3.649545E-15    2.850497E-12    5.314786E-10    7.160378E-08    7.232215E-06    5.106940E-04
         2.277818E-02    0.551543         5.78572         21.9716         38.7385         50.4725         38.7385         21.9716         5.78572        0.551543    
         2.277818E-02    5.106940E-04    7.232215E-06    7.160378E-08    5.314786E-10    2.850497E-12   -3.649544E-15   -6.463831E-16   -2.133622E-17   -9.209660E-19
        -3.533325E-20
  17    -5.411193E-21   -1.709471E-19   -4.835026E-18   -1.263468E-16   -3.197461E-15    2.001929E-13    5.222667E-11    7.595795E-09    8.262443E-07    6.448450E-05
         3.313709E-03    9.950420E-02     1.47927         9.17953         27.1092         38.7385         27.1092         9.17953         1.47927        9.950420E-02
         3.313709E-03    6.448450E-05    8.262443E-07    7.595795E-09    5.222667E-11    2.001921E-13   -3.197519E-15   -1.263488E-16   -4.835122E-18   -1.709511E-19
        -5.411332E-21
  18    -5.798707E-22   -2.085024E-20   -6.525886E-19   -1.695404E-17   -5.031636E-16   -5.523958E-15    1.996462E-12    3.441584E-10    4.066309E-08    3.515650E-06
         2.090940E-04    7.821105E-03    0.164505         1.74367         9.17953         21.9716         9.17953         1.74367        0.164505        7.821105E-03
         2.090940E-04    3.515650E-06    4.066309E-08    3.441584E-10    1.996459E-12   -5.524457E-15   -5.031860E-16   -1.695508E-17   -6.526420E-19   -2.085229E-20
        -5.799370E-22
  19    -4.227556E-23   -1.655285E-21   -5.613032E-20   -1.589005E-18   -4.131796E-17   -1.299333E-15    1.316862E-14    8.641103E-12    1.170621E-09    1.123342E-07
         7.686752E-06    3.522353E-04    1.001974E-02    0.164505         1.47927         5.78572         1.47927        0.164505        1.001974E-02    3.522353E-04
         7.686752E-06    1.123342E-07    1.170621E-09    8.641095E-12    1.316713E-14   -1.299444E-15   -4.132338E-17   -1.589342E-18   -5.614545E-20   -1.655812E-21
        -4.229123E-23
  20    -2.194595E-24   -9.543191E-23   -3.639456E-21   -1.163596E-19   -3.188582E-18   -8.508374E-17   -2.330071E-15    8.353899E-14    2.138992E-11    2.344080E-09
         1.817661E-07    9.847049E-06    3.522353E-04    7.821105E-03    9.950420E-02    0.551543        9.950420E-02    7.821105E-03    3.522353E-04    9.847049E-06
         1.817661E-07    2.344080E-09    2.138989E-11    8.353959E-14   -2.330308E-15   -8.510558E-17   -3.190236E-18   -1.164405E-19   -3.642428E-21   -9.552105E-23
        -2.196939E-24
  21    -7.857877E-26   -3.888246E-24   -1.706398E-22   -6.351704E-21   -1.976238E-19   -5.357932E-18   -1.390323E-16   -3.112006E-15    1.887657E-13    3.307073E-11
         2.936474E-09    1.817661E-07    7.686752E-06    2.090940E-04    3.313709E-03    2.277818E-02    3.313709E-03    2.090940E-04    7.686752E-06    1.817661E-07
         2.936473E-09    3.307067E-11    1.887706E-13   -3.112462E-15   -1.391009E-16   -5.363785E-18   -1.979255E-19   -6.363178E-21   -1.709895E-22   -3.897230E-24
        -7.878447E-26
  22    -1.972817E-27   -1.134335E-25   -5.812642E-24   -2.549293E-22   -9.346381E-21   -2.846555E-19   -7.530310E-18   -1.841831E-16   -3.436024E-15    2.422786E-13
         3.307073E-11    2.344080E-09    1.123342E-07    3.515650E-06    6.448450E-05    5.106940E-04    6.448450E-05    3.515650E-06    1.123342E-07    2.344080E-09
         3.307067E-11    2.422876E-13   -3.436691E-15   -1.843259E-16   -7.544105E-18   -2.854168E-19   -9.376688E-21   -2.558769E-22   -5.837115E-24   -1.139754E-25
        -1.983584E-27
  23    -3.527680E-29   -2.408051E-27   -1.461884E-25   -7.619234E-24   -3.329991E-22   -1.196943E-20   -3.530484E-19   -8.913335E-18   -2.018611E-16   -3.436021E-15
         1.887636E-13    2.138993E-11    1.170621E-09    4.066309E-08    8.262443E-07    7.232215E-06    8.262443E-07    4.066309E-08    1.170621E-09    2.138989E-11
         1.887706E-13   -3.436691E-15   -2.020504E-16   -8.934897E-18   -3.543754E-19   -1.202635E-20   -3.348654E-22   -7.668525E-24   -1.472785E-25   -2.428855E-27
        -3.563294E-29
  24    -4.470539E-31   -3.729654E-29   -2.737512E-27   -1.717169E-25   -9.017887E-24   -3.885311E-22   -1.351399E-20   -3.791197E-19   -8.912414E-18   -1.841696E-16
        -3.112005E-15    8.353761E-14    8.641105E-12    3.441584E-10    7.595795E-09    7.160378E-08    7.595795E-09    3.441584E-10    8.641095E-12    8.353959E-14
        -3.112462E-15   -1.843259E-16   -8.934897E-18   -3.807522E-19   -1.359259E-20   -3.913178E-22   -9.094999E-24   -1.734533E-25   -2.770368E-27   -3.783271E-29
        -4.548627E-31
  25    -3.854674E-33   -4.139106E-31   -3.801736E-29   -2.934628E-27   -1.876418E-25   -9.778154E-24   -4.086119E-22   -1.351139E-20   -3.529474E-19   -7.528511E-18
        -1.390202E-16   -2.330052E-15    1.316864E-14    1.996462E-12    5.222667E-11    5.314786E-10    5.222667E-11    1.996459E-12    1.316713E-14   -2.330308E-15
        -1.391009E-16   -7.544105E-18   -3.543754E-19   -1.359259E-20   -4.118497E-22   -9.875036E-24   -1.899210E-25   -2.978278E-27   -3.871682E-29   -4.235175E-31
        -3.971461E-33
  26    -1.968565E-35   -3.104884E-33   -3.827789E-31   -3.789111E-29   -3.021653E-27   -1.929737E-25   -9.775605E-24   -3.883644E-22   -1.196361E-20   -2.845376E-19
        -5.356692E-18   -8.507874E-17   -1.299315E-15   -5.523893E-15    2.001931E-13    2.850497E-12    2.001921E-13   -5.524457E-15   -1.299444E-15   -8.510558E-17
        -5.363785E-18   -2.854168E-19   -1.202635E-20   -3.913178E-22   -9.875036E-24   -1.955009E-25   -3.072037E-27   -3.870183E-29   -3.935672E-31   -3.226477E-33
        -2.088513E-35
  27    -2.099680E-38   -1.290014E-35   -2.620218E-33   -3.629278E-31   -3.772597E-29   -3.020592E-27   -1.875329E-25   -9.011614E-24   -3.327691E-22   -9.341109E-21
        -1.975545E-19   -3.188138E-18   -4.131673E-17   -5.031600E-16   -3.197453E-15   -3.649544E-15   -3.197519E-15   -5.031860E-16   -4.132338E-17   -3.190236E-18
        -1.979255E-19   -9.376688E-21   -3.348654E-22   -9.094999E-24   -1.899210E-25   -3.072037E-27   -3.858506E-29   -3.743008E-31   -2.742069E-33   -1.398333E-35
        -2.930713E-38
  28     4.584166E-40    6.080632E-39   -9.682280E-36   -2.448304E-33   -3.627360E-31   -3.786010E-29   -2.931785E-27   -1.715455E-25   -7.612332E-24   -2.547499E-22
        -6.348921E-21   -1.163368E-19   -1.588917E-18   -1.695385E-17   -1.263466E-16   -6.463831E-16   -1.263488E-16   -1.695508E-17   -1.589342E-18   -1.164405E-19
        -6.363178E-21   -2.558769E-22   -7.668525E-24   -1.734533E-25   -2.978278E-27   -3.870183E-29   -3.743008E-31   -2.570521E-33   -1.068836E-35   -5.272060E-40
         4.217410E-40
  29     3.190548E-42    4.265821E-40    1.338285E-38   -9.668858E-36   -2.616506E-33   -3.822166E-31   -3.796198E-29   -2.733810E-27   -1.460210E-25   -5.807702E-24
        -1.705512E-22   -3.638588E-21   -5.612616E-20   -6.525780E-19   -4.835015E-18   -2.133622E-17   -4.835122E-18   -6.526420E-19   -5.614545E-20   -3.642428E-21
        -1.709895E-22   -5.837115E-24   -1.472785E-25   -2.770368E-27   -3.871682E-29   -3.935672E-31   -2.742069E-33   -1.068836E-35    7.365741E-39    4.006394E-40
         3.100557E-42
  30     8.043840E-45    2.493710E-42    4.268570E-40    6.239387E-39   -1.285536E-35   -3.097195E-33   -4.130413E-31   -3.723006E-29   -2.404627E-27   -1.133185E-25
        -3.885886E-24   -9.540512E-23   -1.655135E-21   -2.084982E-20   -1.709467E-19   -9.209660E-19   -1.709511E-19   -2.085229E-20   -1.655812E-21   -9.552105E-23
        -3.897230E-24   -1.139754E-25   -2.428855E-27   -3.783271E-29   -4.235175E-31   -3.226477E-33   -1.398333E-35   -5.272060E-40    4.006394E-40    2.434714E-42
         7.959274E-45
  31      0.00000        8.044902E-45    3.192400E-42    4.596351E-40   -2.057829E-38   -1.959893E-35   -3.843040E-33   -4.460139E-31   -3.521495E-29   -1.970438E-27
        -7.852304E-26   -2.193872E-24   -4.227094E-23   -5.798566E-22   -5.411177E-21   -3.533325E-20   -5.411332E-21   -5.799370E-22   -4.229123E-23   -2.196939E-24
        -7.878447E-26   -1.983584E-27   -3.563294E-29   -4.548627E-31   -3.971461E-33   -2.088513E-35   -2.930713E-38    4.217410E-40    3.100557E-42    7.959274E-45
          0.00000    

 CONCENTRATION WILL BE SAVED ON UNIT 1030 AT END OF TIME STEP   29, STRESS PERIOD    2


  MASS BUDGET FOR ENTIRE MODEL AT END OF TIME STEP   29, STRESS PERIOD   2
  ---------------------------------------------------------------------------------------------------

     CUMULATIVE MASS      M       RATES FOR THIS TIME STEP      M/T          PACKAGE NAME    
     ------------------                 ------------------------                     ----------------

           IN:                                      IN:
           ---                                      ---
     STORAGE-AQUEOUS =  4930589357.7205       STORAGE-AQUEOUS =     4361488.0160     MST                              
                 WEL =  7884000000.0000                   WEL =           0.0000     SSM_WEL-1                        
                 CHD =           0.0000                   CHD =           0.0000     SSM_CHD-1                        

            TOTAL IN = 12814589357.7206              TOTAL IN =     4361488.0160

          OUT:                                     OUT:
          ----                                     ----
     STORAGE-AQUEOUS =  7888533370.6047       STORAGE-AQUEOUS =         663.6938     MST                              
                 WEL =  4926055987.1159                   WEL =     4360824.3222     SSM_WEL-1                        
                 CHD =       7.5562E-18                   CHD =           0.0000     SSM_CHD-1                        

           TOTAL OUT = 12814589357.7206             TOTAL OUT =     4361488.0160

            IN - OUT =      -4.3869E-05              IN - OUT =      -1.0803E-07

 PERCENT DISCREPANCY =          -0.00     PERCENT DISCREPANCY =          -0.00




         TIME SUMMARY AT END OF TIME STEP   29 IN STRESS PERIOD    2
                    SECONDS     MINUTES      HOURS       DAYS        YEARS
                    -----------------------------------------------------------
   TIME STEP LENGTH 2.16991E+06  36165.      602.75      25.115     6.87602E-02
 STRESS PERIOD TIME 6.29273E+07 1.04879E+06  17480.      728.33      1.9940    
         TOTAL TIME 1.41767E+08 2.36279E+06  39380.      1640.8      4.4923    


end timestep


start timestep kper="2" kstp="30" mode="normal"

 UBDSV1 SAVING  STORAGE-AQUEOUS ON UNIT   1029 AT TIME STEP     30, STRESS PERIOD      2
 UBDSV1 SAVING     FLOW-JA-FACE ON UNIT   1029 AT TIME STEP     30, STRESS PERIOD      2
 UBDSV06 SAVING  SOURCE-SINK MIX IN MODEL GWT_P06-MF6      PACKAGE GWT_P06-MF6     CONNECTED TO MODEL GWT_P06-MF6      PACKAGE SSM              ON UNIT   1029 AT TIME STEP     30, STRESS PERIOD      2
1
  CONCENTRATION IN LAYER   1 AT END OF TIME STEP  30 IN STRESS PERIOD    2
  ---------------------------------------------------------------------------

                1               2               3               4               5               6               7               8               9              10
               11              12              13              14              15              16              17              18              19              20
               21              22              23              24              25              26              27              28              29              30
               31
 ................................................................................................................................................................................................................................................................................................................................................................................................................................................................................................................
   1      0.00000        8.324903E-45    3.191295E-42    4.134629E-40   -3.767240E-38   -2.290198E-35   -4.253272E-33   -4.811705E-31   -3.735439E-29   -2.063627E-27
        -8.141641E-26   -2.257517E-24   -4.327641E-23   -5.913135E-22   -5.496268E-21   -3.563838E-20   -5.496127E-21   -5.912464E-22   -4.326050E-23   -2.255132E-24
        -8.120625E-26   -2.052571E-27   -3.698666E-29   -4.730584E-31   -4.131167E-33   -2.163923E-35   -2.885705E-38    4.527316E-40    3.289034E-42    8.419990E-45
          0.00000    
   2     8.324903E-45    2.503048E-42    3.996233E-40   -5.404991E-39   -1.539409E-35   -3.453093E-33   -4.477225E-31   -3.965796E-29   -2.528211E-27   -1.178904E-25
        -4.007836E-24   -9.773691E-23   -1.687732E-21   -2.118307E-20   -1.731360E-19   -9.271371E-19   -1.731320E-19   -2.118101E-20   -1.687199E-21   -9.764651E-23
        -3.998690E-24   -1.173361E-25   -2.506827E-27   -3.910400E-29   -4.377441E-31   -3.326116E-33   -1.425656E-35    1.578557E-39    4.272758E-40    2.566932E-42
         8.421192E-45
   3     3.191295E-42    3.996233E-40    3.495991E-39   -1.180914E-35   -2.932339E-33   -4.156446E-31   -4.055959E-29   -2.883285E-27   -1.523811E-25   -6.006056E-24
        -1.750315E-22   -3.711858E-21   -5.703228E-20   -6.608030E-19   -4.889005E-18   -2.146433E-17   -4.888908E-18   -6.607493E-19   -5.701705E-20   -3.708854E-21
        -1.746768E-22   -5.981120E-24   -1.512653E-25   -2.849495E-27   -3.983686E-29   -4.044457E-31   -2.805256E-33   -1.075446E-35    9.844907E-39    4.275732E-40
         3.291079E-42
   4     4.134629E-40   -5.404991E-39   -1.180914E-35   -2.747891E-33   -3.949998E-31   -4.051583E-29   -3.098309E-27   -1.794393E-25   -7.891723E-24   -2.620187E-22
        -6.486715E-21   -1.183065E-19   -1.612130E-18   -1.712174E-17   -1.269841E-16   -6.403862E-16   -1.269821E-16   -1.712069E-17   -1.611792E-18   -1.182251E-19
        -6.475119E-21   -2.610568E-22   -7.841465E-24   -1.776609E-25   -3.053406E-27   -3.967827E-29   -3.831998E-31   -2.620492E-33   -1.074028E-35    1.748098E-39
         4.540537E-40
   5    -3.767240E-38   -1.539409E-35   -2.932339E-33   -3.949998E-31   -4.038162E-29   -3.194748E-27   -1.964284E-25   -9.359159E-24   -3.429577E-22   -9.562682E-21
        -2.012498E-19   -3.240770E-18   -4.184824E-17   -5.006227E-16   -3.006855E-15   -1.397323E-15   -3.006798E-15   -5.006002E-16   -4.184281E-17   -3.239112E-18
        -2.009462E-19   -9.532045E-21   -3.410624E-22   -9.280496E-24   -1.940932E-25   -3.142916E-27   -3.949416E-29   -3.829998E-31   -2.801361E-33   -1.420916E-35
        -2.840870E-38
   6    -2.290198E-35   -3.453093E-33   -4.156446E-31   -4.051583E-29   -3.194748E-27   -2.021772E-25   -1.016097E-23   -4.007887E-22   -1.226826E-20   -2.904057E-19
        -5.453648E-18   -8.602671E-17   -1.273948E-15   -3.656658E-15    2.419780E-13    3.238110E-12    2.419788E-13   -3.656161E-15   -1.273837E-15   -8.600496E-17
        -5.447790E-18   -2.896397E-19   -1.221069E-20   -3.979576E-22   -1.006211E-23   -1.995877E-25   -3.141821E-27   -3.964612E-29   -4.038595E-31   -3.318041E-33
        -2.154728E-35
   7    -4.253272E-33   -4.477225E-31   -4.055959E-29   -3.098309E-27   -1.964284E-25   -1.016097E-23   -4.218175E-22   -1.386768E-20   -3.607055E-19   -7.672504E-18
        -1.400974E-16   -2.215931E-15    2.189160E-14    2.301850E-12    5.842858E-11    5.850951E-10    5.842858E-11    2.301853E-12    2.189307E-14   -2.215695E-15
        -1.400295E-16   -7.658705E-18   -3.593699E-19   -1.378818E-20   -4.185276E-22   -1.005951E-23   -1.939815E-25   -3.050474E-27   -3.977944E-29   -4.368375E-31
        -4.118939E-33
   8    -4.811705E-31   -3.965796E-29   -2.883285E-27   -1.794393E-25   -9.359159E-24   -4.007887E-22   -1.386768E-20   -3.875982E-19   -9.086881E-18   -1.850150E-16
        -2.836225E-15    1.078322E-13    9.831789E-12    3.823386E-10    8.305771E-09    7.717984E-08    8.305771E-09    3.823385E-10    9.831797E-12    1.078316E-13
        -2.835776E-15   -1.848737E-16   -9.065317E-18   -3.859551E-19   -1.378555E-20   -3.977881E-22   -9.274089E-24   -1.774851E-25   -2.845678E-27   -3.903511E-29
        -4.719741E-31
   9    -3.735439E-29   -2.528211E-27   -1.523811E-25   -7.891723E-24   -3.429577E-22   -1.226826E-20   -3.607055E-19   -9.086881E-18   -2.025263E-16   -3.018328E-15
         2.326464E-13    2.419033E-11    1.294530E-09    4.420437E-08    8.841173E-07    7.624491E-06    8.841173E-07    4.420437E-08    1.294530E-09    2.419036E-11
         2.326418E-13   -3.017677E-15   -2.023391E-16   -9.064396E-18   -3.592683E-19   -1.220480E-20   -3.408286E-22   -7.834420E-24   -1.510937E-25   -2.503301E-27
        -3.692265E-29
  10    -2.063627E-27   -1.178904E-25   -6.006056E-24   -2.620187E-22   -9.562682E-21   -2.904057E-19   -7.672504E-18   -1.850150E-16   -3.018328E-15    2.955266E-13
         3.730467E-11    2.584984E-09    1.215878E-07    3.737999E-06    6.743990E-05    5.260767E-04    6.743990E-05    3.737999E-06    1.215878E-07    2.584984E-09
         3.730473E-11    2.955180E-13   -3.017674E-15   -1.848605E-16   -7.656908E-18   -2.895210E-19   -9.526715E-21   -2.608747E-22   -5.976084E-24   -1.172184E-25
        -2.050126E-27
  11    -8.141641E-26   -4.007836E-24   -1.750315E-22   -6.486715E-21   -2.012498E-19   -5.453648E-18   -1.400974E-16   -2.836225E-15    2.326464E-13    3.730467E-11
         3.235215E-09    1.962841E-07    8.137621E-06    2.172075E-04    3.384479E-03    2.291954E-02    3.384479E-03    2.172075E-04    8.137621E-06    1.962841E-07
         3.235215E-09    3.730473E-11    2.326397E-13   -2.835777E-15   -1.400176E-16   -5.446551E-18   -2.008766E-19   -6.472308E-21   -1.745869E-22   -3.996286E-24
        -8.114930E-26
  12    -2.257517E-24   -9.773691E-23   -3.711858E-21   -1.183065E-19   -3.240770E-18   -8.602671E-17   -2.215931E-15    1.078322E-13    2.419033E-11    2.584984E-09
         1.962841E-07    1.040866E-05    3.644818E-04    7.933870E-03    9.925823E-02    0.542715        9.925823E-02    7.933870E-03    3.644818E-04    1.040866E-05
         1.962841E-07    2.584984E-09    2.419036E-11    1.078303E-13   -2.215678E-15   -8.600001E-17   -3.238669E-18   -1.182022E-19   -3.707978E-21   -9.761936E-23
        -2.254397E-24
  13    -4.327641E-23   -1.687732E-21   -5.703228E-20   -1.612130E-18   -4.184824E-17   -1.273948E-15    2.189160E-14    9.831789E-12    1.294530E-09    1.215878E-07
         8.137621E-06    3.644818E-04    1.013747E-02    0.163108         1.44484         5.59868         1.44484        0.163108        1.013747E-02    3.644818E-04
         8.137621E-06    1.215878E-07    1.294530E-09    9.831799E-12    2.189309E-14   -1.273819E-15   -4.184158E-17   -1.611703E-18   -5.701286E-20   -1.687047E-21
        -4.325583E-23
  14    -5.913135E-22   -2.118307E-20   -6.608030E-19   -1.712174E-17   -5.006227E-16   -3.656658E-15    2.301850E-12    3.823386E-10    4.420437E-08    3.737999E-06
         2.172075E-04    7.933870E-03    0.163108         1.69712         8.85162         21.1463         8.85162         1.69712        0.163108        7.933870E-03
         2.172075E-04    3.737999E-06    4.420437E-08    3.823385E-10    2.301853E-12   -3.656096E-15   -5.005966E-16   -1.712050E-17   -6.607386E-19   -2.118058E-20
        -5.912321E-22
  15    -5.496268E-21   -1.731360E-19   -4.889005E-18   -1.269841E-16   -3.006855E-15    2.419780E-13    5.842858E-11    8.305771E-09    8.841173E-07    6.743990E-05
         3.384479E-03    9.925823E-02     1.44484         8.85162         26.1247         37.3098         26.1247         8.85162         1.44484        9.925823E-02
         3.384479E-03    6.743990E-05    8.841173E-07    8.305771E-09    5.842858E-11    2.419789E-13   -3.006790E-15   -1.269818E-16   -4.888896E-18   -1.731315E-19
        -5.496111E-21
  16    -3.563838E-20   -9.271371E-19   -2.146433E-17   -6.403862E-16   -1.397323E-15    3.238110E-12    5.850951E-10    7.717984E-08    7.624491E-06    5.260767E-04
         2.291954E-02    0.542715         5.59868         21.1463         37.3098         48.6765         37.3098         21.1463         5.59868        0.542715    
         2.291954E-02    5.260767E-04    7.624491E-06    7.717984E-08    5.850951E-10    3.238110E-12   -1.397321E-15   -6.403862E-16   -2.146433E-17   -9.271371E-19
        -3.563838E-20
  17    -5.496127E-21   -1.731320E-19   -4.888908E-18   -1.269821E-16   -3.006798E-15    2.419788E-13    5.842858E-11    8.305771E-09    8.841173E-07    6.743990E-05
         3.384479E-03    9.925823E-02     1.44484         8.85162         26.1247         37.3098         26.1247         8.85162         1.44484        9.925823E-02
         3.384479E-03    6.743990E-05    8.841173E-07    8.305771E-09    5.842858E-11    2.419780E-13   -3.006855E-15   -1.269841E-16   -4.889005E-18   -1.731360E-19
        -5.496268E-21
  18    -5.912464E-22   -2.118101E-20   -6.607493E-19   -1.712069E-17   -5.006002E-16   -3.656161E-15    2.301853E-12    3.823385E-10    4.420437E-08    3.737999E-06
         2.172075E-04    7.933870E-03    0.163108         1.69712         8.85162         21.1463         8.85162         1.69712        0.163108        7.933870E-03
         2.172075E-04    3.737999E-06    4.420437E-08    3.823386E-10    2.301850E-12   -3.656658E-15   -5.006227E-16   -1.712173E-17   -6.608030E-19   -2.118307E-20
        -5.913135E-22
  19    -4.326050E-23   -1.687199E-21   -5.701705E-20   -1.611792E-18   -4.184281E-17   -1.273837E-15    2.189307E-14    9.831797E-12    1.294530E-09    1.215878E-07
         8.137621E-06    3.644818E-04    1.013747E-02    0.163108         1.44484         5.59868         1.44484        0.163108        1.013747E-02    3.644818E-04
         8.137621E-06    1.215878E-07    1.294530E-09    9.831789E-12    2.189160E-14   -1.273948E-15   -4.184824E-17   -1.612130E-18   -5.703228E-20   -1.687732E-21
        -4.327640E-23
  20    -2.255132E-24   -9.764651E-23   -3.708854E-21   -1.182251E-19   -3.239112E-18   -8.600496E-17   -2.215695E-15    1.078316E-13    2.419036E-11    2.584984E-09
         1.962841E-07    1.040866E-05    3.644818E-04    7.933870E-03    9.925823E-02    0.542715        9.925823E-02    7.933870E-03    3.644818E-04    1.040866E-05
         1.962841E-07    2.584984E-09    2.419033E-11    1.078322E-13   -2.215931E-15   -8.602671E-17   -3.240770E-18   -1.183065E-19   -3.711858E-21   -9.773691E-23
        -2.257517E-24
  21    -8.120625E-26   -3.998690E-24   -1.746768E-22   -6.475119E-21   -2.009462E-19   -5.447790E-18   -1.400295E-16   -2.835776E-15    2.326418E-13    3.730473E-11
         3.235215E-09    1.962841E-07    8.137621E-06    2.172075E-04    3.384479E-03    2.291954E-02    3.384479E-03    2.172075E-04    8.137621E-06    1.962841E-07
         3.235215E-09    3.730467E-11    2.326464E-13   -2.836225E-15   -1.400974E-16   -5.453648E-18   -2.012498E-19   -6.486715E-21   -1.750315E-22   -4.007836E-24
        -8.141641E-26
  22    -2.052571E-27   -1.173361E-25   -5.981120E-24   -2.610568E-22   -9.532045E-21   -2.896397E-19   -7.658705E-18   -1.848737E-16   -3.017677E-15    2.955180E-13
         3.730473E-11    2.584984E-09    1.215878E-07    3.737999E-06    6.743990E-05    5.260767E-04    6.743990E-05    3.737999E-06    1.215878E-07    2.584984E-09
         3.730467E-11    2.955266E-13   -3.018328E-15   -1.850150E-16   -7.672504E-18   -2.904057E-19   -9.562682E-21   -2.620187E-22   -6.006056E-24   -1.178904E-25
        -2.063627E-27
  23    -3.698666E-29   -2.506827E-27   -1.512653E-25   -7.841465E-24   -3.410624E-22   -1.221069E-20   -3.593699E-19   -9.065317E-18   -2.023391E-16   -3.017674E-15
         2.326397E-13    2.419036E-11    1.294530E-09    4.420437E-08    8.841173E-07    7.624491E-06    8.841173E-07    4.420437E-08    1.294530E-09    2.419033E-11
         2.326464E-13   -3.018328E-15   -2.025263E-16   -9.086881E-18   -3.607055E-19   -1.226826E-20   -3.429577E-22   -7.891723E-24   -1.523811E-25   -2.528211E-27
        -3.735439E-29
  24    -4.730584E-31   -3.910400E-29   -2.849495E-27   -1.776609E-25   -9.280496E-24   -3.979576E-22   -1.378818E-20   -3.859551E-19   -9.064396E-18   -1.848605E-16
        -2.835777E-15    1.078303E-13    9.831799E-12    3.823385E-10    8.305771E-09    7.717984E-08    8.305771E-09    3.823386E-10    9.831789E-12    1.078322E-13
        -2.836225E-15   -1.850150E-16   -9.086881E-18   -3.875982E-19   -1.386768E-20   -4.007887E-22   -9.359159E-24   -1.794393E-25   -2.883285E-27   -3.965796E-29
        -4.811705E-31
  25    -4.131167E-33   -4.377441E-31   -3.983686E-29   -3.053406E-27   -1.940932E-25   -1.006211E-23   -4.185276E-22   -1.378555E-20   -3.592683E-19   -7.656908E-18
        -1.400176E-16   -2.215678E-15    2.189309E-14    2.301853E-12    5.842858E-11    5.850951E-10    5.842858E-11    2.301850E-12    2.189160E-14   -2.215931E-15
        -1.400974E-16   -7.672504E-18   -3.607055E-19   -1.386768E-20   -4.218175E-22   -1.016097E-23   -1.964284E-25   -3.098309E-27   -4.055959E-29   -4.477225E-31
        -4.253272E-33
  26    -2.163923E-35   -3.326116E-33   -4.044457E-31   -3.967827E-29   -3.142916E-27   -1.995877E-25   -1.005951E-23   -3.977881E-22   -1.220480E-20   -2.895210E-19
        -5.446551E-18   -8.600001E-17   -1.273819E-15   -3.656096E-15    2.419789E-13    3.238110E-12    2.419780E-13   -3.656658E-15   -1.273948E-15   -8.602671E-17
        -5.453648E-18   -2.904057E-19   -1.226826E-20   -4.007887E-22   -1.016097E-23   -2.021772E-25   -3.194748E-27   -4.051583E-29   -4.156446E-31   -3.453093E-33
        -2.290198E-35
  27    -2.885705E-38   -1.425656E-35   -2.805256E-33   -3.831998E-31   -3.949416E-29   -3.141821E-27   -1.939815E-25   -9.274089E-24   -3.408286E-22   -9.526715E-21
        -2.008766E-19   -3.238669E-18   -4.184158E-17   -5.005966E-16   -3.006790E-15   -1.397321E-15   -3.006855E-15   -5.006227E-16   -4.184824E-17   -3.240770E-18
        -2.012498E-19   -9.562682E-21   -3.429577E-22   -9.359159E-24   -1.964284E-25   -3.194748E-27   -4.038162E-29   -3.949998E-31   -2.932339E-33   -1.539409E-35
        -3.767240E-38
  28     4.527316E-40    1.578557E-39   -1.075446E-35   -2.620492E-33   -3.829998E-31   -3.964612E-29   -3.050474E-27   -1.774851E-25   -7.834420E-24   -2.608747E-22
        -6.472308E-21   -1.182022E-19   -1.611703E-18   -1.712050E-17   -1.269818E-16   -6.403862E-16   -1.269841E-16   -1.712173E-17   -1.612130E-18   -1.183065E-19
        -6.486715E-21   -2.620187E-22   -7.891723E-24   -1.794393E-25   -3.098309E-27   -4.051583E-29   -3.949998E-31   -2.747891E-33   -1.180914E-35   -5.404989E-39
         4.134629E-40
  29     3.289034E-42    4.272758E-40    9.844907E-39   -1.074028E-35   -2.801361E-33   -4.038595E-31   -3.977944E-29   -2.845678E-27   -1.510937E-25   -5.976084E-24
        -1.745869E-22   -3.707978E-21   -5.701286E-20   -6.607386E-19   -4.888896E-18   -2.146433E-17   -4.889005E-18   -6.608030E-19   -5.703228E-20   -3.711858E-21
        -1.750315E-22   -6.006056E-24   -1.523811E-25   -2.883285E-27   -4.055959E-29   -4.156446E-31   -2.932339E-33   -1.180914E-35    3.495993E-39    3.996233E-40
         3.191295E-42
  30     8.419990E-45    2.566932E-42    4.275732E-40    1.748098E-39   -1.420916E-35   -3.318041E-33   -4.368375E-31   -3.903511E-29   -2.503301E-27   -1.172184E-25
        -3.996286E-24   -9.761936E-23   -1.687047E-21   -2.118058E-20   -1.731315E-19   -9.271371E-19   -1.731360E-19   -2.118307E-20   -1.687732E-21   -9.773691E-23
        -4.007836E-24   -1.178904E-25   -2.528211E-27   -3.965796E-29   -4.477225E-31   -3.453093E-33   -1.539409E-35   -5.404989E-39    3.996233E-40    2.503048E-42
         8.324903E-45
  31      0.00000        8.421192E-45    3.291079E-42    4.540537E-40   -2.840870E-38   -2.154728E-35   -4.118939E-33   -4.719741E-31   -3.692265E-29   -2.050126E-27
        -8.114930E-26   -2.254397E-24   -4.325583E-23   -5.912321E-22   -5.496111E-21   -3.563838E-20   -5.496268E-21   -5.913135E-22   -4.327640E-23   -2.257517E-24
        -8.141641E-26   -2.063627E-27   -3.735439E-29   -4.811705E-31   -4.253272E-33   -2.290198E-35   -3.767240E-38    4.134629E-40    3.191295E-42    8.324903E-45
          0.00000    

 CONCENTRATION WILL BE SAVED ON UNIT 1030 AT END OF TIME STEP   30, STRESS PERIOD    2


  MASS BUDGET FOR ENTIRE MODEL AT END OF TIME STEP   30, STRESS PERIOD   2
  ---------------------------------------------------------------------------------------------------

     CUMULATIVE MASS      M       RATES FOR THIS TIME STEP      M/T          PACKAGE NAME    
     ------------------                 ------------------------                     ----------------

           IN:                                      IN:
           ---                                      ---
     STORAGE-AQUEOUS =  5036228500.1156       STORAGE-AQUEOUS =     4206270.8753     MST                              
                 WEL =  7884000000.0000                   WEL =           0.0000     SSM_WEL-1                        
                 CHD =           0.0000                   CHD =           0.0000     SSM_CHD-1                        

            TOTAL IN = 12920228500.1156              TOTAL IN =     4206270.8753

          OUT:                                     OUT:
          ----                                     ----
     STORAGE-AQUEOUS =  7888549034.5688       STORAGE-AQUEOUS =         623.6976     MST                              
                 WEL =  5031679465.5468                   WEL =     4205647.1777     SSM_WEL-1                        
                 CHD =       7.5562E-18                   CHD =           0.0000     SSM_CHD-1                        

           TOTAL OUT = 12920228500.1156             TOTAL OUT =     4206270.8753

            IN - OUT =      -4.5776E-05              IN - OUT =      -1.1548E-07

 PERCENT DISCREPANCY =          -0.00     PERCENT DISCREPANCY =          -0.00




         TIME SUMMARY AT END OF TIME STEP   30 IN STRESS PERIOD    2
                    SECONDS     MINUTES      HOURS       DAYS        YEARS
                    -----------------------------------------------------------
   TIME STEP LENGTH 2.16991E+06  36165.      602.75      25.115     6.87602E-02
 STRESS PERIOD TIME 6.50972E+07 1.08495E+06  18083.      753.44      2.0628    
         TOTAL TIME 1.43937E+08 2.39895E+06  39983.      1665.9      4.5611    


end timestep


start timestep kper="2" kstp="31" mode="normal"

 UBDSV1 SAVING  STORAGE-AQUEOUS ON UNIT   1029 AT TIME STEP     31, STRESS PERIOD      2
 UBDSV1 SAVING     FLOW-JA-FACE ON UNIT   1029 AT TIME STEP     31, STRESS PERIOD      2
 UBDSV06 SAVING  SOURCE-SINK MIX IN MODEL GWT_P06-MF6      PACKAGE GWT_P06-MF6     CONNECTED TO MODEL GWT_P06-MF6      PACKAGE SSM              ON UNIT   1029 AT TIME STEP     31, STRESS PERIOD      2
1
  CONCENTRATION IN LAYER   1 AT END OF TIME STEP  31 IN STRESS PERIOD    2
  ---------------------------------------------------------------------------

                1               2               3               4               5               6               7               8               9              10
               11              12              13              14              15              16              17              18              19              20
               21              22              23              24              25              26              27              28              29              30
               31
 ................................................................................................................................................................................................................................................................................................................................................................................................................................................................................................................
   1      0.00000        8.700528E-45    3.280347E-42    4.027387E-40   -4.682326E-38   -2.505762E-35   -4.550927E-33   -5.087187E-31   -3.914395E-29   -2.146300E-27
        -8.411934E-26   -2.319434E-24   -4.427946E-23   -6.028540E-22   -5.582088E-21   -3.594512E-20   -5.581946E-21   -6.027861E-22   -4.426332E-23   -2.317007E-24
        -8.390464E-26   -2.134950E-27   -3.876432E-29   -5.002937E-31   -4.423302E-33   -2.372882E-35   -3.747724E-38    4.447518E-40    3.386361E-42    8.807013E-45
          0.00000    
   2     8.700528E-45    2.570891E-42    3.973416E-40   -1.075517E-38   -1.690063E-35   -3.692255E-33   -4.730605E-31   -4.155576E-29   -2.630884E-27   -1.219132E-25
        -4.120899E-24   -9.999229E-23   -1.720114E-21   -2.151749E-20   -1.753404E-19   -9.333389E-19   -1.753363E-19   -2.151541E-20   -1.719575E-21   -9.990061E-23
        -4.111587E-24   -1.213463E-25   -2.608909E-27   -4.098352E-29   -4.626986E-31   -3.559692E-33   -1.570642E-35   -3.377638E-39    4.267986E-40    2.639982E-42
         8.808370E-45
   3     3.280347E-42    3.973416E-40   -7.545472E-40   -1.300521E-35   -3.132971E-33   -4.387416E-31   -4.247514E-29   -2.999985E-27   -1.576259E-25   -6.178809E-24
        -1.791460E-22   -3.782313E-21   -5.793048E-20   -6.690315E-19   -4.942848E-18   -2.158750E-17   -4.942751E-18   -6.689774E-19   -5.791513E-20   -3.779277E-21
        -1.787862E-22   -6.153404E-24   -1.564838E-25   -2.965238E-27   -4.172850E-29   -4.271189E-31   -3.000461E-33   -1.189988E-35    5.942018E-39    4.271197E-40
         3.388616E-42
   4     4.027387E-40   -1.075517E-38   -1.300521E-35   -2.934849E-33   -4.166446E-31   -4.240082E-29   -3.222342E-27   -1.855925E-25   -8.120014E-24   -2.682730E-22
        -6.612155E-21   -1.202003E-19   -1.635132E-18   -1.728435E-17   -1.274681E-16   -6.347890E-16   -1.274661E-16   -1.728330E-17   -1.634793E-18   -1.201184E-19
        -6.600438E-21   -2.672968E-22   -8.068775E-24   -1.837713E-25   -3.176158E-27   -4.153568E-29   -4.044038E-31   -2.802076E-33   -1.188491E-35   -3.196696E-39
         4.461848E-40
   5    -4.682326E-38   -1.690063E-35   -3.132971E-33   -4.166446E-31   -4.224821E-29   -3.321533E-27   -2.031171E-25   -9.629379E-24   -3.512013E-22   -9.751688E-21
        -2.046272E-19   -3.291661E-18   -4.234281E-17   -4.970706E-16   -2.784554E-15    1.118738E-15   -2.784496E-15   -4.970483E-16   -4.233737E-17   -3.290000E-18
        -2.043218E-19   -9.720719E-21   -3.492767E-22   -9.549143E-24   -2.007251E-25   -3.268218E-27   -4.133158E-29   -4.041955E-31   -2.996376E-33   -1.565629E-35
        -3.699730E-38
   6    -2.505762E-35   -3.692255E-33   -4.387416E-31   -4.240082E-29   -3.321533E-27   -2.090395E-25   -1.045347E-23   -4.104387E-22   -1.251421E-20   -2.954753E-19
        -5.543616E-18   -8.682451E-17   -1.241216E-15   -1.531423E-15    2.883289E-13    3.662151E-12    2.883297E-13   -1.530926E-15   -1.241104E-15   -8.680284E-17
        -5.537754E-18   -2.947046E-19   -1.245600E-20   -4.075628E-22   -1.035261E-23   -2.063865E-25   -3.267088E-27   -4.150236E-29   -4.265077E-31   -3.551214E-33
        -2.363137E-35
   7    -4.550927E-33   -4.730605E-31   -4.247514E-29   -3.222342E-27   -2.031171E-25   -1.045347E-23   -4.319746E-22   -1.414746E-20   -3.671370E-19   -7.800236E-18
        -1.407799E-16   -2.076772E-15    3.167429E-14    2.638941E-12    6.517226E-11    6.425393E-10    6.517225E-11    2.638944E-12    3.167574E-14   -2.076537E-15
        -1.407125E-16   -7.786434E-18   -3.657930E-19   -1.406705E-20   -4.286321E-22   -1.034995E-23   -2.006104E-25   -3.173135E-27   -4.166899E-29   -4.617534E-31
        -4.410456E-33
   8    -5.087187E-31   -4.155576E-29   -2.999985E-27   -1.855925E-25   -9.629379E-24   -4.104387E-22   -1.414746E-20   -3.945532E-19   -9.237441E-18   -1.851700E-16
        -2.508529E-15    1.349845E-13    1.114064E-11    4.236100E-10    9.060678E-09    8.301429E-08    9.060678E-09    4.236099E-10    1.114064E-11    1.349840E-13
        -2.508087E-15   -1.850302E-16   -9.215876E-18   -3.928995E-19   -1.406439E-20   -4.073904E-22   -9.542599E-24   -1.835909E-25   -2.961305E-27   -4.091216E-29
        -4.991635E-31
   9    -3.914395E-29   -2.630884E-27   -1.576259E-25   -8.120014E-24   -3.512013E-22   -1.251421E-20   -3.671370E-19   -9.237441E-18   -2.023679E-16   -2.526419E-15
         2.815966E-13    2.725948E-11    1.427836E-09    4.794383E-08    9.441368E-07    8.024223E-06    9.441368E-07    4.794383E-08    1.427836E-09    2.725951E-11
         2.815921E-13   -2.525782E-15   -2.021828E-16   -9.214956E-18   -3.656907E-19   -1.245005E-20   -3.490391E-22   -8.061585E-24   -1.563079E-25   -2.605278E-27
        -3.869809E-29
  10    -2.146300E-27   -1.219132E-25   -6.178809E-24   -2.682730E-22   -9.751688E-21   -2.954753E-19   -7.800236E-18   -1.851700E-16   -2.526419E-15    3.548867E-13
         4.193773E-11    2.843359E-09    1.313078E-07    3.966729E-06    7.041831E-05    5.412414E-04    7.041831E-05    3.966729E-06    1.313078E-07    2.843359E-09
         4.193779E-11    3.548783E-13   -2.525781E-15   -1.850172E-16   -7.784637E-18   -2.945852E-19   -9.715331E-21   -2.671118E-22   -6.148270E-24   -1.212259E-25
        -2.132437E-27
  11    -8.411934E-26   -4.120899E-24   -1.791460E-22   -6.612155E-21   -2.046272E-19   -5.543616E-18   -1.407799E-16   -2.508529E-15    2.815966E-13    4.193773E-11
         3.555279E-09    2.114895E-07    8.598685E-06    2.252964E-04    3.452901E-03    2.304445E-02    3.452901E-03    2.252964E-04    8.598685E-06    2.114895E-07
         3.555279E-09    4.193780E-11    2.815901E-13   -2.508090E-15   -1.407008E-16   -5.536515E-18   -2.042517E-19   -6.597598E-21   -1.786951E-22   -4.109141E-24
        -8.384644E-26
  12    -2.319434E-24   -9.999229E-23   -3.782313E-21   -1.202003E-19   -3.291661E-18   -8.682451E-17   -2.076772E-15    1.349845E-13    2.725948E-11    2.843359E-09
         2.114895E-07    1.098169E-05    3.766020E-04    8.040019E-03    9.895300E-02    0.533896        9.895300E-02    8.040019E-03    3.766020E-04    1.098169E-05
         2.114895E-07    2.843359E-09    2.725952E-11    1.349827E-13   -2.076520E-15   -8.679794E-17   -3.289556E-18   -1.200953E-19   -3.778393E-21   -9.987309E-23
        -2.316260E-24
  13    -4.427946E-23   -1.720114E-21   -5.793048E-20   -1.635132E-18   -4.234281E-17   -1.241216E-15    3.167429E-14    1.114064E-11    1.427836E-09    1.313078E-07
         8.598685E-06    3.766020E-04    1.024635E-02    0.161638         1.41103         5.41813         1.41103        0.161638        1.024635E-02    3.766020E-04
         8.598685E-06    1.313078E-07    1.427836E-09    1.114064E-11    3.167576E-14   -1.241087E-15   -4.233614E-17   -1.634704E-18   -5.791091E-20   -1.719422E-21
        -4.425858E-23
  14    -6.028540E-22   -2.151749E-20   -6.690315E-19   -1.728435E-17   -4.970706E-16   -1.531423E-15    2.638941E-12    4.236100E-10    4.794383E-08    3.966729E-06
         2.252964E-04    8.040019E-03    0.161638         1.65169         8.53652         20.3536         8.53652         1.65169        0.161638        8.040019E-03
         2.252964E-04    3.966729E-06    4.794383E-08    4.236099E-10    2.638944E-12   -1.530862E-15   -4.970447E-16   -1.728311E-17   -6.689667E-19   -2.151498E-20
        -6.027717E-22
  15    -5.582088E-21   -1.753404E-19   -4.942848E-18   -1.274681E-16   -2.784554E-15    2.883289E-13    6.517226E-11    9.060678E-09    9.441368E-07    7.041831E-05
         3.452901E-03    9.895300E-02     1.41103         8.53652         25.1762         35.9318         25.1762         8.53652         1.41103        9.895300E-02
         3.452901E-03    7.041831E-05    9.441368E-07    9.060678E-09    6.517225E-11    2.883298E-13   -2.784488E-15   -1.274659E-16   -4.942739E-18   -1.753358E-19
        -5.581930E-21
  16    -3.594512E-20   -9.333389E-19   -2.158750E-17   -6.347890E-16    1.118738E-15    3.662151E-12    6.425393E-10    8.301429E-08    8.024223E-06    5.412414E-04
         2.304445E-02    0.533896         5.41813         20.3536         35.9318         46.9337         35.9318         20.3536         5.41813        0.533896    
         2.304445E-02    5.412414E-04    8.024223E-06    8.301429E-08    6.425393E-10    3.662151E-12    1.118739E-15   -6.347890E-16   -2.158750E-17   -9.333389E-19
        -3.594512E-20
  17    -5.581946E-21   -1.753363E-19   -4.942751E-18   -1.274661E-16   -2.784496E-15    2.883297E-13    6.517225E-11    9.060678E-09    9.441368E-07    7.041831E-05
         3.452901E-03    9.895300E-02     1.41103         8.53652         25.1762         35.9318         25.1762         8.53652         1.41103        9.895300E-02
         3.452901E-03    7.041831E-05    9.441368E-07    9.060678E-09    6.517226E-11    2.883289E-13   -2.784554E-15   -1.274681E-16   -4.942848E-18   -1.753404E-19
        -5.582088E-21
  18    -6.027861E-22   -2.151541E-20   -6.689774E-19   -1.728330E-17   -4.970483E-16   -1.530926E-15    2.638944E-12    4.236099E-10    4.794383E-08    3.966729E-06
         2.252964E-04    8.040019E-03    0.161638         1.65169         8.53652         20.3536         8.53652         1.65169        0.161638        8.040019E-03
         2.252964E-04    3.966729E-06    4.794383E-08    4.236100E-10    2.638941E-12   -1.531422E-15   -4.970706E-16   -1.728435E-17   -6.690314E-19   -2.151749E-20
        -6.028540E-22
  19    -4.426332E-23   -1.719575E-21   -5.791513E-20   -1.634793E-18   -4.233737E-17   -1.241104E-15    3.167574E-14    1.114064E-11    1.427836E-09    1.313078E-07
         8.598685E-06    3.766020E-04    1.024635E-02    0.161638         1.41103         5.41813         1.41103        0.161638        1.024635E-02    3.766020E-04
         8.598685E-06    1.313078E-07    1.427836E-09    1.114064E-11    3.167429E-14   -1.241216E-15   -4.234281E-17   -1.635132E-18   -5.793048E-20   -1.720114E-21
        -4.427946E-23
  20    -2.317007E-24   -9.990061E-23   -3.779277E-21   -1.201184E-19   -3.290000E-18   -8.680284E-17   -2.076537E-15    1.349840E-13    2.725951E-11    2.843359E-09
         2.114895E-07    1.098169E-05    3.766020E-04    8.040019E-03    9.895300E-02    0.533896        9.895300E-02    8.040019E-03    3.766020E-04    1.098169E-05
         2.114895E-07    2.843359E-09    2.725948E-11    1.349845E-13   -2.076772E-15   -8.682451E-17   -3.291661E-18   -1.202003E-19   -3.782313E-21   -9.999229E-23
        -2.319434E-24
  21    -8.390464E-26   -4.111587E-24   -1.787862E-22   -6.600438E-21   -2.043218E-19   -5.537754E-18   -1.407125E-16   -2.508087E-15    2.815921E-13    4.193779E-11
         3.555279E-09    2.114895E-07    8.598685E-06    2.252964E-04    3.452901E-03    2.304445E-02    3.452901E-03    2.252964E-04    8.598685E-06    2.114895E-07
         3.555279E-09    4.193773E-11    2.815966E-13   -2.508529E-15   -1.407799E-16   -5.543616E-18   -2.046272E-19   -6.612155E-21   -1.791460E-22   -4.120899E-24
        -8.411934E-26
  22    -2.134950E-27   -1.213463E-25   -6.153404E-24   -2.672968E-22   -9.720719E-21   -2.947046E-19   -7.786434E-18   -1.850302E-16   -2.525782E-15    3.548783E-13
         4.193780E-11    2.843359E-09    1.313078E-07    3.966729E-06    7.041831E-05    5.412414E-04    7.041831E-05    3.966729E-06    1.313078E-07    2.843359E-09
         4.193773E-11    3.548867E-13   -2.526419E-15   -1.851700E-16   -7.800236E-18   -2.954753E-19   -9.751688E-21   -2.682730E-22   -6.178809E-24   -1.219132E-25
        -2.146300E-27
  23    -3.876432E-29   -2.608909E-27   -1.564838E-25   -8.068775E-24   -3.492767E-22   -1.245600E-20   -3.657930E-19   -9.215876E-18   -2.021828E-16   -2.525781E-15
         2.815901E-13    2.725952E-11    1.427836E-09    4.794383E-08    9.441368E-07    8.024223E-06    9.441368E-07    4.794383E-08    1.427836E-09    2.725948E-11
         2.815966E-13   -2.526419E-15   -2.023679E-16   -9.237441E-18   -3.671370E-19   -1.251421E-20   -3.512013E-22   -8.120014E-24   -1.576259E-25   -2.630884E-27
        -3.914395E-29
  24    -5.002937E-31   -4.098352E-29   -2.965238E-27   -1.837713E-25   -9.549143E-24   -4.075628E-22   -1.406705E-20   -3.928995E-19   -9.214956E-18   -1.850172E-16
        -2.508090E-15    1.349827E-13    1.114064E-11    4.236099E-10    9.060678E-09    8.301429E-08    9.060678E-09    4.236100E-10    1.114064E-11    1.349845E-13
        -2.508529E-15   -1.851700E-16   -9.237441E-18   -3.945532E-19   -1.414746E-20   -4.104387E-22   -9.629379E-24   -1.855925E-25   -2.999985E-27   -4.155576E-29
        -5.087187E-31
  25    -4.423302E-33   -4.626986E-31   -4.172850E-29   -3.176158E-27   -2.007251E-25   -1.035261E-23   -4.286321E-22   -1.406439E-20   -3.656907E-19   -7.784637E-18
        -1.407008E-16   -2.076520E-15    3.167576E-14    2.638944E-12    6.517225E-11    6.425393E-10    6.517226E-11    2.638941E-12    3.167429E-14   -2.076772E-15
        -1.407799E-16   -7.800236E-18   -3.671370E-19   -1.414746E-20   -4.319746E-22   -1.045347E-23   -2.031171E-25   -3.222342E-27   -4.247514E-29   -4.730605E-31
        -4.550927E-33
  26    -2.372882E-35   -3.559692E-33   -4.271189E-31   -4.153568E-29   -3.268218E-27   -2.063865E-25   -1.034995E-23   -4.073904E-22   -1.245005E-20   -2.945852E-19
        -5.536515E-18   -8.679794E-17   -1.241087E-15   -1.530862E-15    2.883298E-13    3.662151E-12    2.883289E-13   -1.531422E-15   -1.241216E-15   -8.682451E-17
        -5.543616E-18   -2.954753E-19   -1.251421E-20   -4.104387E-22   -1.045347E-23   -2.090395E-25   -3.321533E-27   -4.240082E-29   -4.387416E-31   -3.692255E-33
        -2.505762E-35
  27    -3.747724E-38   -1.570642E-35   -3.000461E-33   -4.044038E-31   -4.133158E-29   -3.267088E-27   -2.006104E-25   -9.542599E-24   -3.490391E-22   -9.715331E-21
        -2.042517E-19   -3.289556E-18   -4.233614E-17   -4.970447E-16   -2.784488E-15    1.118739E-15   -2.784554E-15   -4.970706E-16   -4.234281E-17   -3.291661E-18
        -2.046272E-19   -9.751688E-21   -3.512013E-22   -9.629379E-24   -2.031171E-25   -3.321533E-27   -4.224821E-29   -4.166446E-31   -3.132971E-33   -1.690063E-35
        -4.682326E-38
  28     4.447518E-40   -3.377638E-39   -1.189988E-35   -2.802076E-33   -4.041955E-31   -4.150236E-29   -3.173135E-27   -1.835909E-25   -8.061585E-24   -2.671118E-22
        -6.597598E-21   -1.200953E-19   -1.634704E-18   -1.728311E-17   -1.274659E-16   -6.347890E-16   -1.274681E-16   -1.728435E-17   -1.635132E-18   -1.202003E-19
        -6.612155E-21   -2.682730E-22   -8.120014E-24   -1.855925E-25   -3.222342E-27   -4.240082E-29   -4.166446E-31   -2.934849E-33   -1.300521E-35   -1.075517E-38
         4.027387E-40
  29     3.386361E-42    4.267986E-40    5.942018E-39   -1.188491E-35   -2.996376E-33   -4.265077E-31   -4.166899E-29   -2.961305E-27   -1.563079E-25   -6.148270E-24
        -1.786951E-22   -3.778393E-21   -5.791091E-20   -6.689667E-19   -4.942739E-18   -2.158750E-17   -4.942848E-18   -6.690314E-19   -5.793048E-20   -3.782313E-21
        -1.791460E-22   -6.178809E-24   -1.576259E-25   -2.999985E-27   -4.247514E-29   -4.387416E-31   -3.132971E-33   -1.300521E-35   -7.545457E-40    3.973416E-40
         3.280347E-42
  30     8.807013E-45    2.639982E-42    4.271197E-40   -3.196696E-39   -1.565629E-35   -3.551214E-33   -4.617534E-31   -4.091216E-29   -2.605278E-27   -1.212259E-25
        -4.109141E-24   -9.987309E-23   -1.719422E-21   -2.151498E-20   -1.753358E-19   -9.333389E-19   -1.753404E-19   -2.151749E-20   -1.720114E-21   -9.999229E-23
        -4.120899E-24   -1.219132E-25   -2.630884E-27   -4.155576E-29   -4.730605E-31   -3.692255E-33   -1.690063E-35   -1.075517E-38    3.973416E-40    2.570891E-42
         8.700529E-45
  31      0.00000        8.808370E-45    3.388616E-42    4.461848E-40   -3.699730E-38   -2.363137E-35   -4.410456E-33   -4.991635E-31   -3.869809E-29   -2.132437E-27
        -8.384644E-26   -2.316260E-24   -4.425858E-23   -6.027717E-22   -5.581930E-21   -3.594512E-20   -5.582088E-21   -6.028540E-22   -4.427946E-23   -2.319434E-24
        -8.411934E-26   -2.146300E-27   -3.914395E-29   -5.087187E-31   -4.550927E-33   -2.505762E-35   -4.682326E-38    4.027387E-40    3.280347E-42    8.700529E-45
          0.00000    

 CONCENTRATION WILL BE SAVED ON UNIT 1030 AT END OF TIME STEP   31, STRESS PERIOD    2


  MASS BUDGET FOR ENTIRE MODEL AT END OF TIME STEP   31, STRESS PERIOD   2
  ---------------------------------------------------------------------------------------------------

     CUMULATIVE MASS      M       RATES FOR THIS TIME STEP      M/T          PACKAGE NAME    
     ------------------                 ------------------------                     ----------------

           IN:                                      IN:
           ---                                      ---
     STORAGE-AQUEOUS =  5138085034.2459       STORAGE-AQUEOUS =     4055657.4320     MST                              
                 WEL =  7884000000.0000                   WEL =           0.0000     SSM_WEL-1                        
                 CHD =           0.0000                   CHD =           0.0000     SSM_CHD-1                        

            TOTAL IN = 13022085034.2459              TOTAL IN =     4055657.4320

          OUT:                                     OUT:
          ----                                     ----
     STORAGE-AQUEOUS =  7888563708.8926       STORAGE-AQUEOUS =         584.2927     MST                              
                 WEL =  5133521325.3533                   WEL =     4055073.1393     SSM_WEL-1                        
                 CHD =       7.5562E-18                   CHD =           0.0000     SSM_CHD-1                        

           TOTAL OUT = 13022085034.2459             TOTAL OUT =     4055657.4320

            IN - OUT =      -4.9591E-05              IN - OUT =      -1.1222E-07

 PERCENT DISCREPANCY =          -0.00     PERCENT DISCREPANCY =          -0.00




         TIME SUMMARY AT END OF TIME STEP   31 IN STRESS PERIOD    2
                    SECONDS     MINUTES      HOURS       DAYS        YEARS
                    -----------------------------------------------------------
   TIME STEP LENGTH 2.16991E+06  36165.      602.75      25.115     6.87602E-02
 STRESS PERIOD TIME 6.72672E+07 1.12112E+06  18685.      778.56      2.1316    
         TOTAL TIME 1.46107E+08 2.43512E+06  40585.      1691.1      4.6299    


end timestep


start timestep kper="2" kstp="32" mode="normal"

 UBDSV1 SAVING  STORAGE-AQUEOUS ON UNIT   1029 AT TIME STEP     32, STRESS PERIOD      2
 UBDSV1 SAVING     FLOW-JA-FACE ON UNIT   1029 AT TIME STEP     32, STRESS PERIOD      2
 UBDSV06 SAVING  SOURCE-SINK MIX IN MODEL GWT_P06-MF6      PACKAGE GWT_P06-MF6     CONNECTED TO MODEL GWT_P06-MF6      PACKAGE SSM              ON UNIT   1029 AT TIME STEP     32, STRESS PERIOD      2
1
  CONCENTRATION IN LAYER   1 AT END OF TIME STEP  32 IN STRESS PERIOD    2
  ---------------------------------------------------------------------------

                1               2               3               4               5               6               7               8               9              10
               11              12              13              14              15              16              17              18              19              20
               21              22              23              24              25              26              27              28              29              30
               31
 ................................................................................................................................................................................................................................................................................................................................................................................................................................................................................................................
   1      0.00000        9.085952E-45    3.367237E-42    3.893455E-40   -5.681224E-38   -2.735966E-35   -4.865154E-33   -5.375552E-31   -4.100381E-29   -2.231673E-27
        -8.689474E-26   -2.382712E-24   -4.530062E-23   -6.145601E-22   -5.668799E-21   -3.625348E-20   -5.668656E-21   -6.144914E-22   -4.528425E-23   -2.380243E-24
        -8.667542E-26   -2.220022E-27   -4.061196E-29   -5.288073E-31   -4.731802E-33   -2.596189E-35   -4.690879E-38    4.342616E-40    3.482081E-42    9.204769E-45
          0.00000    
   2     9.085952E-45    2.637997E-42    3.936764E-40   -1.660889E-38   -1.850812E-35   -3.944534E-33   -4.995755E-31   -4.352847E-29   -2.736964E-27   -1.260460E-25
        -4.236458E-24   -1.022877E-22   -1.752963E-21   -2.185557E-20   -1.775641E-19   -9.395675E-19   -1.775601E-19   -2.185347E-20   -1.752419E-21   -1.021947E-22
        -4.226980E-24   -1.254663E-25   -2.714383E-27   -4.293746E-29   -4.888177E-31   -3.806175E-33   -1.725481E-35   -8.818331E-39    4.250370E-40    2.712630E-42
         9.206295E-45
   3     3.367237E-42    3.936764E-40   -5.410823E-39   -1.428058E-35   -3.344431E-33   -4.628974E-31   -4.446585E-29   -3.120569E-27   -1.630158E-25   -6.355437E-24
        -1.833340E-22   -3.853806E-21   -5.884009E-20   -6.773243E-19   -4.996544E-18   -2.170471E-17   -4.996446E-18   -6.772700E-19   -5.882462E-20   -3.850739E-21
        -1.829691E-22   -6.329557E-24   -1.618471E-25   -3.084843E-27   -4.369463E-29   -4.508371E-31   -3.206292E-33   -1.312249E-35    1.649898E-39    4.253836E-40
         3.484562E-42
   4     3.893455E-40   -1.660889E-38   -1.428058E-35   -3.131824E-33   -4.392715E-31   -4.435910E-29   -3.350486E-27   -1.919166E-25   -8.353485E-24   -2.746415E-22
        -6.739528E-21   -1.221219E-19   -1.658323E-18   -1.744300E-17   -1.277805E-16   -6.274284E-16   -1.277785E-16   -1.744196E-17   -1.657982E-18   -1.220395E-19
        -6.727689E-21   -2.736508E-22   -8.301252E-24   -1.900517E-25   -3.302990E-27   -4.346561E-29   -4.265756E-31   -2.993480E-33   -1.310668E-35   -8.625344E-39
         4.358131E-40
   5    -5.681224E-38   -1.850812E-35   -3.344431E-33   -4.392715E-31   -4.418709E-29   -3.452501E-27   -2.099913E-25   -9.905765E-24   -3.595985E-22   -9.943751E-21
        -2.080572E-19   -3.342797E-18   -4.280231E-17   -4.937326E-16   -2.527334E-15    3.914764E-15   -2.527276E-15   -4.937101E-16   -4.279686E-17   -3.341134E-18
        -2.077499E-19   -9.912451E-21   -3.576443E-22   -9.823933E-24   -2.075412E-25   -3.397667E-27   -4.324048E-29   -4.263586E-31   -3.202010E-33   -1.720181E-35
        -4.639543E-38
   6    -2.735966E-35   -3.944534E-33   -4.628974E-31   -4.435910E-29   -3.452501E-27   -2.160917E-25   -1.075265E-23   -4.202707E-22   -1.276428E-20   -3.006243E-19
        -5.633381E-18   -8.747824E-17   -1.199932E-15    8.680262E-16    3.396190E-13    4.124998E-12    3.396198E-13    8.685171E-16   -1.199820E-15   -8.745666E-17
        -5.627516E-18   -2.998488E-19   -1.270542E-20   -4.173496E-22   -1.064976E-23   -2.133741E-25   -3.396502E-27   -4.343108E-29   -4.502002E-31   -3.797279E-33
        -2.585868E-35
   7    -4.865154E-33   -4.995755E-31   -4.446585E-29   -3.350486E-27   -2.099913E-25   -1.075265E-23   -4.423240E-22   -1.443198E-20   -3.736673E-19   -7.926718E-18
        -1.411013E-16   -1.910077E-15    4.261470E-14    3.010125E-12    7.248838E-11    7.039576E-10    7.248837E-11    3.010128E-12    4.261613E-14   -1.909844E-15
        -1.410345E-16   -7.912915E-18   -3.723149E-19   -1.435066E-20   -4.389284E-22   -1.064704E-23   -2.074236E-25   -3.299873E-27   -4.363297E-29   -4.878325E-31
        -4.718311E-33
   8    -5.375552E-31   -4.352847E-29   -3.120569E-27   -1.919166E-25   -9.905765E-24   -4.202707E-22   -1.443198E-20   -4.016138E-19   -9.385789E-18   -1.847193E-16
        -2.123743E-15    1.652550E-13    1.257586E-11    4.681233E-10    9.861770E-09    8.910875E-08    9.861770E-09    4.681233E-10    1.257587E-11    1.652545E-13
        -2.123308E-15   -1.845809E-16   -9.364226E-18   -3.999497E-19   -1.434797E-20   -4.171744E-22   -9.817251E-24   -1.898667E-25   -3.080790E-27   -4.286355E-29
        -5.276297E-31
   9    -4.100381E-29   -2.736964E-27   -1.630158E-25   -8.353485E-24   -3.595985E-22   -1.276428E-20   -3.736673E-19   -9.385789E-18   -2.014940E-16   -1.952977E-15
         3.360680E-13    3.061499E-11    1.570937E-09    5.188499E-08    1.006283E-06    8.431020E-06    1.006283E-06    5.188499E-08    1.570937E-09    3.061502E-11
         3.360636E-13   -1.952353E-15   -2.013109E-16   -9.363306E-18   -3.722120E-19   -1.269940E-20   -3.574029E-22   -8.293916E-24   -1.616668E-25   -2.710646E-27
        -4.054345E-29
  10    -2.231673E-27   -1.260460E-25   -6.355437E-24   -2.746415E-22   -9.943751E-21   -3.006243E-19   -7.926718E-18   -1.847193E-16   -1.952977E-15    4.209021E-13
         4.699518E-11    3.119864E-09    1.414982E-07    4.201657E-06    7.341616E-05    5.561747E-04    7.341616E-05    4.201657E-06    1.414982E-07    3.119864E-09
         4.699524E-11    4.208940E-13   -1.952353E-15   -1.845681E-16   -7.911120E-18   -2.997287E-19   -9.907003E-21   -2.734630E-22   -6.324324E-24   -1.253431E-25
        -2.217440E-27
  11    -8.689474E-26   -4.236458E-24   -1.833340E-22   -6.739528E-21   -2.080572E-19   -5.633381E-18   -1.411013E-16   -2.123743E-15    3.360680E-13    4.699518E-11
         3.897435E-09    2.273847E-07    9.069443E-06    2.333505E-04    3.518951E-03    2.315344E-02    3.518951E-03    2.333505E-04    9.069443E-06    2.273847E-07
         3.897436E-09    4.699525E-11    3.360617E-13   -2.123313E-15   -1.410229E-16   -5.626278E-18   -2.076795E-19   -6.724820E-21   -1.828766E-22   -4.224490E-24
        -8.661597E-26
  12    -2.382712E-24   -1.022877E-22   -3.853806E-21   -1.221219E-19   -3.342797E-18   -8.747824E-17   -1.910077E-15    1.652550E-13    3.061499E-11    3.119864E-09
         2.273847E-07    1.156548E-05    3.885805E-04    8.139624E-03    9.859185E-02    0.525097        9.859185E-02    8.139624E-03    3.885805E-04    1.156548E-05
         2.273847E-07    3.119865E-09    3.061502E-11    1.652532E-13   -1.909828E-15   -8.745181E-17   -3.340690E-18   -1.220163E-19   -3.849846E-21   -1.021669E-22
        -2.379483E-24
  13    -4.530062E-23   -1.752963E-21   -5.884009E-20   -1.658323E-18   -4.280231E-17   -1.199932E-15    4.261470E-14    1.257586E-11    1.570937E-09    1.414982E-07
         9.069443E-06    3.885805E-04    1.034655E-02    0.160103         1.37786         5.24382         1.37786        0.160103        1.034655E-02    3.885805E-04
         9.069443E-06    1.414982E-07    1.570937E-09    1.257587E-11    4.261616E-14   -1.199803E-15   -4.279564E-17   -1.657894E-18   -5.882038E-20   -1.752264E-21
        -4.527945E-23
  14    -6.145601E-22   -2.185557E-20   -6.773243E-19   -1.744300E-17   -4.937326E-16    8.680262E-16    3.010125E-12    4.681233E-10    5.188499E-08    4.201657E-06
         2.333505E-04    8.139624E-03    0.160103         1.60738         8.23369         19.5922         8.23369         1.60738        0.160103        8.139624E-03
         2.333505E-04    4.201657E-06    5.188499E-08    4.681233E-10    3.010128E-12    8.685811E-16   -4.937064E-16   -1.744176E-17   -6.772593E-19   -2.185304E-20
        -6.144767E-22
  15    -5.668799E-21   -1.775641E-19   -4.996544E-18   -1.277805E-16   -2.527334E-15    3.396190E-13    7.248838E-11    9.861770E-09    1.006283E-06    7.341616E-05
         3.518951E-03    9.859185E-02     1.37786         8.23369         24.2625         34.6032         24.2625         8.23369         1.37786        9.859185E-02
         3.518951E-03    7.341616E-05    1.006283E-06    9.861770E-09    7.248837E-11    3.396199E-13   -2.527268E-15   -1.277782E-16   -4.996434E-18   -1.775596E-19
        -5.668640E-21
  16    -3.625348E-20   -9.395675E-19   -2.170471E-17   -6.274284E-16    3.914764E-15    4.124998E-12    7.039576E-10    8.910875E-08    8.431020E-06    5.561747E-04
         2.315344E-02    0.525097         5.24382         19.5922         34.6032         45.2444         34.6032         19.5922         5.24382        0.525097    
         2.315344E-02    5.561747E-04    8.431020E-06    8.910875E-08    7.039576E-10    4.124998E-12    3.914765E-15   -6.274285E-16   -2.170471E-17   -9.395676E-19
        -3.625348E-20
  17    -5.668656E-21   -1.775601E-19   -4.996446E-18   -1.277785E-16   -2.527276E-15    3.396198E-13    7.248837E-11    9.861770E-09    1.006283E-06    7.341616E-05
         3.518951E-03    9.859185E-02     1.37786         8.23369         24.2625         34.6032         24.2625         8.23369         1.37786        9.859185E-02
         3.518951E-03    7.341616E-05    1.006283E-06    9.861770E-09    7.248838E-11    3.396190E-13   -2.527334E-15   -1.277805E-16   -4.996544E-18   -1.775641E-19
        -5.668799E-21
  18    -6.144914E-22   -2.185347E-20   -6.772700E-19   -1.744196E-17   -4.937101E-16    8.685171E-16    3.010128E-12    4.681233E-10    5.188499E-08    4.201657E-06
         2.333505E-04    8.139624E-03    0.160103         1.60738         8.23369         19.5922         8.23369         1.60738        0.160103        8.139624E-03
         2.333505E-04    4.201657E-06    5.188499E-08    4.681233E-10    3.010125E-12    8.680266E-16   -4.937325E-16   -1.744300E-17   -6.773243E-19   -2.185557E-20
        -6.145601E-22
  19    -4.528425E-23   -1.752419E-21   -5.882462E-20   -1.657982E-18   -4.279686E-17   -1.199820E-15    4.261613E-14    1.257587E-11    1.570937E-09    1.414982E-07
         9.069443E-06    3.885805E-04    1.034655E-02    0.160103         1.37786         5.24382         1.37786        0.160103        1.034655E-02    3.885805E-04
         9.069443E-06    1.414982E-07    1.570937E-09    1.257586E-11    4.261470E-14   -1.199932E-15   -4.280231E-17   -1.658323E-18   -5.884009E-20   -1.752963E-21
        -4.530061E-23
  20    -2.380243E-24   -1.021947E-22   -3.850739E-21   -1.220395E-19   -3.341134E-18   -8.745666E-17   -1.909844E-15    1.652545E-13    3.061502E-11    3.119864E-09
         2.273847E-07    1.156548E-05    3.885805E-04    8.139624E-03    9.859185E-02    0.525097        9.859185E-02    8.139624E-03    3.885805E-04    1.156548E-05
         2.273847E-07    3.119864E-09    3.061499E-11    1.652550E-13   -1.910077E-15   -8.747824E-17   -3.342797E-18   -1.221219E-19   -3.853806E-21   -1.022877E-22
        -2.382712E-24
  21    -8.667542E-26   -4.226980E-24   -1.829691E-22   -6.727689E-21   -2.077499E-19   -5.627516E-18   -1.410345E-16   -2.123308E-15    3.360636E-13    4.699524E-11
         3.897436E-09    2.273847E-07    9.069443E-06    2.333505E-04    3.518951E-03    2.315344E-02    3.518951E-03    2.333505E-04    9.069443E-06    2.273847E-07
         3.897435E-09    4.699518E-11    3.360680E-13   -2.123743E-15   -1.411013E-16   -5.633381E-18   -2.080572E-19   -6.739528E-21   -1.833340E-22   -4.236458E-24
        -8.689474E-26
  22    -2.220022E-27   -1.254663E-25   -6.329557E-24   -2.736508E-22   -9.912451E-21   -2.998488E-19   -7.912915E-18   -1.845809E-16   -1.952353E-15    4.208940E-13
         4.699525E-11    3.119865E-09    1.414982E-07    4.201657E-06    7.341616E-05    5.561747E-04    7.341616E-05    4.201657E-06    1.414982E-07    3.119864E-09
         4.699518E-11    4.209021E-13   -1.952977E-15   -1.847193E-16   -7.926718E-18   -3.006243E-19   -9.943751E-21   -2.746415E-22   -6.355437E-24   -1.260460E-25
        -2.231673E-27
  23    -4.061196E-29   -2.714383E-27   -1.618471E-25   -8.301252E-24   -3.576443E-22   -1.270542E-20   -3.723149E-19   -9.364226E-18   -2.013109E-16   -1.952353E-15
         3.360617E-13    3.061502E-11    1.570937E-09    5.188499E-08    1.006283E-06    8.431020E-06    1.006283E-06    5.188499E-08    1.570937E-09    3.061499E-11
         3.360680E-13   -1.952977E-15   -2.014940E-16   -9.385789E-18   -3.736673E-19   -1.276428E-20   -3.595985E-22   -8.353485E-24   -1.630158E-25   -2.736964E-27
        -4.100381E-29
  24    -5.288073E-31   -4.293746E-29   -3.084843E-27   -1.900517E-25   -9.823933E-24   -4.173496E-22   -1.435066E-20   -3.999497E-19   -9.363306E-18   -1.845681E-16
        -2.123313E-15    1.652532E-13    1.257587E-11    4.681233E-10    9.861770E-09    8.910875E-08    9.861770E-09    4.681233E-10    1.257586E-11    1.652550E-13
        -2.123743E-15   -1.847193E-16   -9.385789E-18   -4.016138E-19   -1.443198E-20   -4.202707E-22   -9.905765E-24   -1.919166E-25   -3.120569E-27   -4.352847E-29
        -5.375552E-31
  25    -4.731802E-33   -4.888177E-31   -4.369463E-29   -3.302990E-27   -2.075412E-25   -1.064976E-23   -4.389284E-22   -1.434797E-20   -3.722120E-19   -7.911120E-18
        -1.410229E-16   -1.909828E-15    4.261616E-14    3.010128E-12    7.248837E-11    7.039576E-10    7.248838E-11    3.010125E-12    4.261470E-14   -1.910077E-15
        -1.411013E-16   -7.926718E-18   -3.736673E-19   -1.443198E-20   -4.423240E-22   -1.075265E-23   -2.099913E-25   -3.350486E-27   -4.446585E-29   -4.995755E-31
        -4.865154E-33
  26    -2.596189E-35   -3.806175E-33   -4.508371E-31   -4.346561E-29   -3.397667E-27   -2.133741E-25   -1.064704E-23   -4.171744E-22   -1.269940E-20   -2.997287E-19
        -5.626278E-18   -8.745181E-17   -1.199803E-15    8.685811E-16    3.396199E-13    4.124998E-12    3.396190E-13    8.680266E-16   -1.199932E-15   -8.747824E-17
        -5.633381E-18   -3.006243E-19   -1.276428E-20   -4.202707E-22   -1.075265E-23   -2.160917E-25   -3.452501E-27   -4.435910E-29   -4.628974E-31   -3.944534E-33
        -2.735966E-35
  27    -4.690879E-38   -1.725481E-35   -3.206292E-33   -4.265756E-31   -4.324048E-29   -3.396502E-27   -2.074236E-25   -9.817251E-24   -3.574029E-22   -9.907003E-21
        -2.076795E-19   -3.340690E-18   -4.279564E-17   -4.937064E-16   -2.527268E-15    3.914765E-15   -2.527334E-15   -4.937325E-16   -4.280231E-17   -3.342797E-18
        -2.080572E-19   -9.943751E-21   -3.595985E-22   -9.905765E-24   -2.099913E-25   -3.452501E-27   -4.418709E-29   -4.392715E-31   -3.344430E-33   -1.850812E-35
        -5.681224E-38
  28     4.342616E-40   -8.818331E-39   -1.312249E-35   -2.993480E-33   -4.263586E-31   -4.343108E-29   -3.299873E-27   -1.898667E-25   -8.293916E-24   -2.734630E-22
        -6.724820E-21   -1.220163E-19   -1.657894E-18   -1.744176E-17   -1.277782E-16   -6.274285E-16   -1.277805E-16   -1.744300E-17   -1.658323E-18   -1.221219E-19
        -6.739528E-21   -2.746415E-22   -8.353485E-24   -1.919166E-25   -3.350486E-27   -4.435910E-29   -4.392715E-31   -3.131824E-33   -1.428058E-35   -1.660889E-38
         3.893455E-40
  29     3.482081E-42    4.250370E-40    1.649898E-39   -1.310668E-35   -3.202010E-33   -4.502002E-31   -4.363297E-29   -3.080790E-27   -1.616668E-25   -6.324324E-24
        -1.828766E-22   -3.849846E-21   -5.882038E-20   -6.772593E-19   -4.996434E-18   -2.170471E-17   -4.996544E-18   -6.773243E-19   -5.884009E-20   -3.853806E-21
        -1.833340E-22   -6.355437E-24   -1.630158E-25   -3.120569E-27   -4.446585E-29   -4.628974E-31   -3.344430E-33   -1.428058E-35   -5.410821E-39    3.936764E-40
         3.367237E-42
  30     9.204769E-45    2.712630E-42    4.253836E-40   -8.625344E-39   -1.720181E-35   -3.797279E-33   -4.878325E-31   -4.286355E-29   -2.710646E-27   -1.253431E-25
        -4.224490E-24   -1.021669E-22   -1.752264E-21   -2.185304E-20   -1.775596E-19   -9.395676E-19   -1.775641E-19   -2.185557E-20   -1.752963E-21   -1.022877E-22
        -4.236458E-24   -1.260460E-25   -2.736964E-27   -4.352847E-29   -4.995755E-31   -3.944534E-33   -1.850812E-35   -1.660889E-38    3.936764E-40    2.637997E-42
         9.085952E-45
  31      0.00000        9.206295E-45    3.484562E-42    4.358131E-40   -4.639543E-38   -2.585868E-35   -4.718311E-33   -5.276297E-31   -4.054345E-29   -2.217440E-27
        -8.661597E-26   -2.379483E-24   -4.527945E-23   -6.144767E-22   -5.668640E-21   -3.625348E-20   -5.668799E-21   -6.145601E-22   -4.530061E-23   -2.382712E-24
        -8.689474E-26   -2.231673E-27   -4.100381E-29   -5.375552E-31   -4.865154E-33   -2.735966E-35   -5.681224E-38    3.893455E-40    3.367237E-42    9.085952E-45
          0.00000    

 CONCENTRATION WILL BE SAVED ON UNIT 1030 AT END OF TIME STEP   32, STRESS PERIOD    2


  MASS BUDGET FOR ENTIRE MODEL AT END OF TIME STEP   32, STRESS PERIOD   2
  ---------------------------------------------------------------------------------------------------

     CUMULATIVE MASS      M       RATES FOR THIS TIME STEP      M/T          PACKAGE NAME    
     ------------------                 ------------------------                     ----------------

           IN:                                      IN:
           ---                                      ---
     STORAGE-AQUEOUS =  5236274896.4748       STORAGE-AQUEOUS =     3909660.2677     MST                              
                 WEL =  7884000000.0000                   WEL =           0.0000     SSM_WEL-1                        
                 CHD =           0.0000                   CHD =           0.0000     SSM_CHD-1                        

            TOTAL IN = 13120274896.4748              TOTAL IN =     3909660.2677

          OUT:                                     OUT:
          ----                                     ----
     STORAGE-AQUEOUS =  7888577409.5211       STORAGE-AQUEOUS =         545.5227     MST                              
                 WEL =  5231697486.9538                   WEL =     3909114.7450     SSM_WEL-1                        
                 CHD =       7.5562E-18                   CHD =           0.0000     SSM_CHD-1                        

           TOTAL OUT = 13120274896.4749             TOTAL OUT =     3909660.2677

            IN - OUT =      -4.9591E-05              IN - OUT =      -1.0571E-07

 PERCENT DISCREPANCY =          -0.00     PERCENT DISCREPANCY =          -0.00




         TIME SUMMARY AT END OF TIME STEP   32 IN STRESS PERIOD    2
                    SECONDS     MINUTES      HOURS       DAYS        YEARS
                    -----------------------------------------------------------
   TIME STEP LENGTH 2.16991E+06  36165.      602.75      25.115     6.87602E-02
 STRESS PERIOD TIME 6.94371E+07 1.15728E+06  19288.      803.67      2.2003    
         TOTAL TIME 1.48277E+08 2.47128E+06  41188.      1716.2      4.6986    


end timestep


start timestep kper="2" kstp="33" mode="normal"

 UBDSV1 SAVING  STORAGE-AQUEOUS ON UNIT   1029 AT TIME STEP     33, STRESS PERIOD      2
 UBDSV1 SAVING     FLOW-JA-FACE ON UNIT   1029 AT TIME STEP     33, STRESS PERIOD      2
 UBDSV06 SAVING  SOURCE-SINK MIX IN MODEL GWT_P06-MF6      PACKAGE GWT_P06-MF6     CONNECTED TO MODEL GWT_P06-MF6      PACKAGE SSM              ON UNIT   1029 AT TIME STEP     33, STRESS PERIOD      2
1
  CONCENTRATION IN LAYER   1 AT END OF TIME STEP  33 IN STRESS PERIOD    2
  ---------------------------------------------------------------------------

                1               2               3               4               5               6               7               8               9              10
               11              12              13              14              15              16              17              18              19              20
               21              22              23              24              25              26              27              28              29              30
               31
 ................................................................................................................................................................................................................................................................................................................................................................................................................................................................................................................
   1      0.00000        9.480923E-45    3.451443E-42    3.730457E-40   -6.769469E-38   -2.981602E-35   -5.196709E-33   -5.677296E-31   -4.293621E-29   -2.319816E-27
        -8.974413E-26   -2.447374E-24   -4.634012E-23   -6.264331E-22   -5.756408E-21   -3.656346E-20   -5.756263E-21   -6.263636E-22   -4.632352E-23   -2.444862E-24
        -8.952011E-26   -2.307857E-27   -4.253183E-29   -5.586485E-31   -5.057415E-33   -2.834629E-35   -5.720590E-38    4.210313E-40    3.575704E-42    9.613068E-45
          0.00000    
   2     9.480923E-45    2.704098E-42    3.885025E-40   -2.299893E-38   -2.022194E-35   -4.210523E-33   -5.273125E-31   -4.557850E-29   -2.846540E-27   -1.302911E-25
        -4.354557E-24   -1.046237E-22   -1.786285E-21   -2.219733E-20   -1.798070E-19   -9.458187E-19   -1.798029E-19   -2.219521E-20   -1.785735E-21   -1.045295E-22
        -4.344909E-24   -1.296985E-25   -2.823341E-27   -4.496820E-29   -5.161462E-31   -4.066153E-33   -1.890702E-35   -1.477551E-38    4.218707E-40    2.784627E-42
         9.614780E-45
   3     3.451443E-42    3.885025E-40   -1.049908E-38   -1.563943E-35   -3.567201E-33   -4.881524E-31   -4.653413E-29   -3.245140E-27   -1.685541E-25   -6.536007E-24
        -1.875965E-22   -3.926352E-21   -5.976116E-20   -6.856778E-19   -5.049970E-18   -2.181485E-17   -5.049871E-18   -6.856233E-19   -5.974558E-20   -3.923253E-21
        -1.872264E-22   -6.509645E-24   -1.673581E-25   -3.208413E-27   -4.573765E-29   -4.756404E-31   -3.423228E-33   -1.442638E-35   -3.057019E-39    4.222443E-40
         3.578431E-42
   4     3.730457E-40   -2.299893E-38   -1.563943E-35   -3.339262E-33   -4.629176E-31   -4.639303E-29   -3.482849E-27   -1.984151E-25   -8.592227E-24   -2.811258E-22
        -6.868862E-21   -1.240713E-19   -1.681673E-18   -1.759643E-17   -1.278992E-16   -6.181217E-16   -1.278971E-16   -1.759539E-17   -1.681331E-18   -1.239883E-19
        -6.856901E-21   -2.801206E-22   -8.538986E-24   -1.965057E-25   -3.434011E-27   -4.547041E-29   -4.497521E-31   -3.195142E-33   -1.440970E-35   -1.456980E-38
         4.227092E-40
   5    -6.769469E-38   -2.022194E-35   -3.567201E-33   -4.629176E-31   -4.620057E-29   -3.587763E-27   -2.170549E-25   -1.018843E-23   -3.681517E-22   -1.013892E-20
        -2.115392E-19   -3.394051E-18   -4.321993E-17   -4.884505E-16   -2.231655E-15    7.014936E-15   -2.231597E-15   -4.884278E-16   -4.321447E-17   -3.392385E-18
        -2.112301E-19   -1.010728E-20   -3.661677E-22   -1.010498E-23   -2.145457E-25   -3.531375E-27   -4.522314E-29   -4.495260E-31   -3.418740E-33   -1.885101E-35
        -5.665719E-38
   6    -2.981602E-35   -4.210523E-33   -4.881524E-31   -4.639303E-29   -3.587763E-27   -2.233380E-25   -1.105864E-23   -4.302877E-22   -1.301851E-20   -3.058505E-19
        -5.722596E-18   -8.796504E-17   -1.148840E-15    3.557489E-15    3.962413E-13    4.629095E-12    3.962421E-13    3.557975E-15   -1.148728E-15   -8.794355E-17
        -5.716728E-18   -3.050704E-19   -1.295901E-20   -4.273210E-22   -1.095369E-23   -2.205546E-25   -3.530174E-27   -4.543464E-29   -4.749769E-31   -4.056820E-33
        -2.823703E-35
   7    -5.196709E-33   -5.273125E-31   -4.653413E-29   -3.482849E-27   -2.170549E-25   -1.105864E-23   -4.528688E-22   -1.472131E-20   -3.802927E-19   -8.051308E-18
        -1.410124E-16   -1.712856E-15    5.481865E-14    3.417891E-12    8.040817E-11    7.694952E-10    8.040817E-11    3.417893E-12    5.482007E-14   -1.712623E-15
        -1.409462E-16   -8.037504E-18   -3.789319E-19   -1.463908E-20   -4.494197E-22   -1.095092E-23   -2.144250E-25   -3.430798E-27   -4.567378E-29   -5.151196E-31
        -5.043253E-33
   8    -5.677296E-31   -4.557850E-29   -3.245140E-27   -1.984151E-25   -1.018843E-23   -4.302877E-22   -1.472131E-20   -4.087756E-19   -9.531065E-18   -1.835987E-16
        -1.675762E-15    1.989173E-13    1.414598E-11    5.160299E-10    1.071026E-08    9.546448E-08    1.071026E-08    5.160299E-10    1.414599E-11    1.989169E-13
        -1.675333E-15   -1.834618E-16   -9.509505E-18   -4.071012E-19   -1.463635E-20   -4.271428E-22   -1.009815E-23   -1.963160E-25   -3.204238E-27   -4.489167E-29
        -5.574219E-31
   9    -4.293621E-29   -2.846540E-27   -1.685541E-25   -8.592227E-24   -3.681517E-22   -1.301851E-20   -3.802927E-19   -9.531065E-18   -1.998403E-16   -1.289330E-15
         3.965324E-13    3.427497E-11    1.724224E-09    5.603109E-08    1.070532E-06    8.844488E-06    1.070532E-06    5.603109E-08    1.724224E-09    3.427499E-11
         3.965282E-13   -1.288719E-15   -1.996591E-16   -9.508586E-18   -3.788284E-19   -1.295291E-20   -3.659225E-22   -8.531501E-24   -1.671734E-25   -2.819495E-27
        -4.246097E-29
  10    -2.319816E-27   -1.302911E-25   -6.536007E-24   -2.811258E-22   -1.013892E-20   -3.058505E-19   -8.051308E-18   -1.835987E-16   -1.289330E-15    4.941363E-13
         5.250297E-11    3.415147E-09    1.521627E-07    4.442591E-06    7.642993E-05    5.708642E-04    7.642993E-05    4.442591E-06    1.521627E-07    3.415147E-09
         5.250303E-11    4.941285E-13   -1.288721E-15   -1.834491E-16   -8.035710E-18   -3.049496E-19   -1.010178E-20   -2.799300E-22   -6.504311E-24   -1.295723E-25
        -2.305204E-27
  11    -8.974413E-26   -4.354557E-24   -1.875965E-22   -6.868862E-21   -2.115392E-19   -5.722596E-18   -1.410124E-16   -1.675762E-15    3.965324E-13    5.250297E-11
         4.262439E-09    2.439711E-07    9.549382E-06    2.413597E-04    3.582610E-03    2.324702E-02    3.582610E-03    2.413597E-04    9.549382E-06    2.439711E-07
         4.262439E-09    5.250303E-11    3.965263E-13   -1.675340E-15   -1.409348E-16   -5.715490E-18   -2.111593E-19   -6.854003E-21   -1.871326E-22   -4.342374E-24
        -8.945938E-26
  12    -2.447374E-24   -1.046237E-22   -3.926352E-21   -1.240713E-19   -3.394051E-18   -8.796504E-17   -1.712856E-15    1.989173E-13    3.427497E-11    3.415147E-09
         2.439711E-07    1.215932E-05    4.004026E-04    8.232766E-03    9.817796E-02    0.516326        9.817796E-02    8.232766E-03    4.004026E-04    1.215932E-05
         2.439711E-07    3.415147E-09    3.427500E-11    1.989156E-13   -1.712608E-15   -8.793875E-17   -3.391941E-18   -1.239650E-19   -3.922351E-21   -1.045012E-22
        -2.444090E-24
  13    -4.634012E-23   -1.786285E-21   -5.976116E-20   -1.681673E-18   -4.321993E-17   -1.148840E-15    5.481865E-14    1.414598E-11    1.724224E-09    1.521627E-07
         9.549382E-06    4.004026E-04    1.043823E-02    0.158508         1.34531         5.07552         1.34531        0.158508        1.043823E-02    4.004026E-04
         9.549382E-06    1.521627E-07    1.724224E-09    1.414599E-11    5.482009E-14   -1.148711E-15   -4.321325E-17   -1.681242E-18   -5.974131E-20   -1.785578E-21
        -4.631865E-23
  14    -6.264331E-22   -2.219733E-20   -6.856778E-19   -1.759643E-17   -4.884505E-16    3.557489E-15    3.417891E-12    5.160299E-10    5.603109E-08    4.442591E-06
         2.413597E-04    8.232766E-03    0.158508         1.56417         7.94260         18.8607         7.94260         1.56417        0.158508        8.232766E-03
         2.413597E-04    4.442591E-06    5.603109E-08    5.160299E-10    3.417894E-12    3.558038E-15   -4.884241E-16   -1.759519E-17   -6.856125E-19   -2.219478E-20
        -6.263488E-22
  15    -5.756408E-21   -1.798070E-19   -5.049970E-18   -1.278992E-16   -2.231655E-15    3.962413E-13    8.040817E-11    1.071026E-08    1.070532E-06    7.642993E-05
         3.582610E-03    9.817796E-02     1.34531         7.94260         23.3824         33.3225         23.3824         7.94260         1.34531        9.817796E-02
         3.582610E-03    7.642993E-05    1.070532E-06    1.071026E-08    8.040817E-11    3.962422E-13   -2.231589E-15   -1.278969E-16   -5.049859E-18   -1.798024E-19
        -5.756246E-21
  16    -3.656346E-20   -9.458187E-19   -2.181485E-17   -6.181217E-16    7.014936E-15    4.629095E-12    7.694952E-10    9.546448E-08    8.844488E-06    5.708642E-04
         2.324702E-02    0.516326         5.07552         18.8607         33.3225         43.6083         33.3225         18.8607         5.07552        0.516326    
         2.324702E-02    5.708642E-04    8.844488E-06    9.546448E-08    7.694952E-10    4.629095E-12    7.014937E-15   -6.181217E-16   -2.181485E-17   -9.458187E-19
        -3.656346E-20
  17    -5.756263E-21   -1.798029E-19   -5.049871E-18   -1.278971E-16   -2.231597E-15    3.962421E-13    8.040817E-11    1.071026E-08    1.070532E-06    7.642993E-05
         3.582610E-03    9.817796E-02     1.34531         7.94260         23.3824         33.3225         23.3824         7.94260         1.34531        9.817796E-02
         3.582610E-03    7.642993E-05    1.070532E-06    1.071026E-08    8.040817E-11    3.962413E-13   -2.231654E-15   -1.278992E-16   -5.049970E-18   -1.798070E-19
        -5.756408E-21
  18    -6.263636E-22   -2.219521E-20   -6.856233E-19   -1.759539E-17   -4.884278E-16    3.557975E-15    3.417893E-12    5.160299E-10    5.603109E-08    4.442591E-06
         2.413597E-04    8.232766E-03    0.158508         1.56417         7.94260         18.8607         7.94260         1.56417        0.158508        8.232766E-03
         2.413597E-04    4.442591E-06    5.603109E-08    5.160299E-10    3.417891E-12    3.557490E-15   -4.884504E-16   -1.759643E-17   -6.856778E-19   -2.219733E-20
        -6.264331E-22
  19    -4.632352E-23   -1.785735E-21   -5.974558E-20   -1.681331E-18   -4.321447E-17   -1.148728E-15    5.482007E-14    1.414599E-11    1.724224E-09    1.521627E-07
         9.549382E-06    4.004026E-04    1.043823E-02    0.158508         1.34531         5.07552         1.34531        0.158508        1.043823E-02    4.004026E-04
         9.549382E-06    1.521627E-07    1.724224E-09    1.414598E-11    5.481865E-14   -1.148840E-15   -4.321993E-17   -1.681673E-18   -5.976116E-20   -1.786285E-21
        -4.634012E-23
  20    -2.444862E-24   -1.045295E-22   -3.923253E-21   -1.239883E-19   -3.392385E-18   -8.794355E-17   -1.712623E-15    1.989169E-13    3.427499E-11    3.415147E-09
         2.439711E-07    1.215932E-05    4.004026E-04    8.232766E-03    9.817796E-02    0.516326        9.817796E-02    8.232766E-03    4.004026E-04    1.215932E-05
         2.439711E-07    3.415147E-09    3.427497E-11    1.989173E-13   -1.712855E-15   -8.796504E-17   -3.394051E-18   -1.240713E-19   -3.926352E-21   -1.046237E-22
        -2.447374E-24
  21    -8.952011E-26   -4.344909E-24   -1.872264E-22   -6.856901E-21   -2.112301E-19   -5.716728E-18   -1.409462E-16   -1.675333E-15    3.965282E-13    5.250303E-11
         4.262439E-09    2.439711E-07    9.549382E-06    2.413597E-04    3.582610E-03    2.324702E-02    3.582610E-03    2.413597E-04    9.549382E-06    2.439711E-07
         4.262439E-09    5.250297E-11    3.965324E-13   -1.675762E-15   -1.410124E-16   -5.722596E-18   -2.115392E-19   -6.868862E-21   -1.875965E-22   -4.354557E-24
        -8.974413E-26
  22    -2.307857E-27   -1.296985E-25   -6.509645E-24   -2.801206E-22   -1.010728E-20   -3.050704E-19   -8.037504E-18   -1.834618E-16   -1.288719E-15    4.941285E-13
         5.250303E-11    3.415147E-09    1.521627E-07    4.442591E-06    7.642993E-05    5.708642E-04    7.642993E-05    4.442591E-06    1.521627E-07    3.415147E-09
         5.250297E-11    4.941363E-13   -1.289330E-15   -1.835987E-16   -8.051308E-18   -3.058505E-19   -1.013892E-20   -2.811258E-22   -6.536007E-24   -1.302911E-25
        -2.319816E-27
  23    -4.253183E-29   -2.823341E-27   -1.673581E-25   -8.538986E-24   -3.661677E-22   -1.295901E-20   -3.789319E-19   -9.509505E-18   -1.996591E-16   -1.288721E-15
         3.965263E-13    3.427500E-11    1.724224E-09    5.603109E-08    1.070532E-06    8.844488E-06    1.070532E-06    5.603109E-08    1.724224E-09    3.427497E-11
         3.965324E-13   -1.289330E-15   -1.998403E-16   -9.531065E-18   -3.802927E-19   -1.301851E-20   -3.681517E-22   -8.592227E-24   -1.685541E-25   -2.846540E-27
        -4.293621E-29
  24    -5.586485E-31   -4.496820E-29   -3.208413E-27   -1.965057E-25   -1.010498E-23   -4.273210E-22   -1.463908E-20   -4.071012E-19   -9.508586E-18   -1.834491E-16
        -1.675340E-15    1.989156E-13    1.414599E-11    5.160299E-10    1.071026E-08    9.546448E-08    1.071026E-08    5.160299E-10    1.414598E-11    1.989173E-13
        -1.675762E-15   -1.835987E-16   -9.531065E-18   -4.087756E-19   -1.472131E-20   -4.302877E-22   -1.018843E-23   -1.984151E-25   -3.245140E-27   -4.557850E-29
        -5.677296E-31
  25    -5.057415E-33   -5.161462E-31   -4.573765E-29   -3.434011E-27   -2.145457E-25   -1.095369E-23   -4.494197E-22   -1.463635E-20   -3.788284E-19   -8.035710E-18
        -1.409348E-16   -1.712608E-15    5.482009E-14    3.417894E-12    8.040817E-11    7.694952E-10    8.040817E-11    3.417891E-12    5.481865E-14   -1.712855E-15
        -1.410124E-16   -8.051308E-18   -3.802927E-19   -1.472131E-20   -4.528688E-22   -1.105864E-23   -2.170549E-25   -3.482849E-27   -4.653413E-29   -5.273125E-31
        -5.196709E-33
  26    -2.834629E-35   -4.066153E-33   -4.756404E-31   -4.547041E-29   -3.531375E-27   -2.205546E-25   -1.095092E-23   -4.271428E-22   -1.295291E-20   -3.049496E-19
        -5.715490E-18   -8.793875E-17   -1.148711E-15    3.558038E-15    3.962422E-13    4.629095E-12    3.962413E-13    3.557490E-15   -1.148840E-15   -8.796504E-17
        -5.722596E-18   -3.058505E-19   -1.301851E-20   -4.302877E-22   -1.105864E-23   -2.233380E-25   -3.587763E-27   -4.639303E-29   -4.881524E-31   -4.210523E-33
        -2.981602E-35
  27    -5.720590E-38   -1.890702E-35   -3.423228E-33   -4.497521E-31   -4.522314E-29   -3.530174E-27   -2.144250E-25   -1.009815E-23   -3.659225E-22   -1.010178E-20
        -2.111593E-19   -3.391941E-18   -4.321325E-17   -4.884241E-16   -2.231589E-15    7.014937E-15   -2.231654E-15   -4.884504E-16   -4.321993E-17   -3.394051E-18
        -2.115392E-19   -1.013892E-20   -3.681517E-22   -1.018843E-23   -2.170549E-25   -3.587763E-27   -4.620057E-29   -4.629176E-31   -3.567201E-33   -2.022194E-35
        -6.769468E-38
  28     4.210313E-40   -1.477551E-38   -1.442638E-35   -3.195142E-33   -4.495260E-31   -4.543464E-29   -3.430798E-27   -1.963160E-25   -8.531501E-24   -2.799300E-22
        -6.854003E-21   -1.239650E-19   -1.681242E-18   -1.759519E-17   -1.278969E-16   -6.181217E-16   -1.278992E-16   -1.759643E-17   -1.681673E-18   -1.240713E-19
        -6.868862E-21   -2.811258E-22   -8.592227E-24   -1.984151E-25   -3.482849E-27   -4.639303E-29   -4.629176E-31   -3.339262E-33   -1.563943E-35   -2.299893E-38
         3.730457E-40
  29     3.575704E-42    4.218707E-40   -3.057019E-39   -1.440970E-35   -3.418740E-33   -4.749769E-31   -4.567378E-29   -3.204238E-27   -1.671734E-25   -6.504311E-24
        -1.871326E-22   -3.922351E-21   -5.974131E-20   -6.856125E-19   -5.049859E-18   -2.181485E-17   -5.049970E-18   -6.856778E-19   -5.976116E-20   -3.926352E-21
        -1.875965E-22   -6.536007E-24   -1.685541E-25   -3.245140E-27   -4.653413E-29   -4.881524E-31   -3.567201E-33   -1.563943E-35   -1.049908E-38    3.885025E-40
         3.451443E-42
  30     9.613068E-45    2.784627E-42    4.222443E-40   -1.456980E-38   -1.885101E-35   -4.056820E-33   -5.151196E-31   -4.489167E-29   -2.819495E-27   -1.295723E-25
        -4.342374E-24   -1.045012E-22   -1.785578E-21   -2.219478E-20   -1.798024E-19   -9.458187E-19   -1.798070E-19   -2.219733E-20   -1.786285E-21   -1.046237E-22
        -4.354557E-24   -1.302911E-25   -2.846540E-27   -4.557850E-29   -5.273125E-31   -4.210523E-33   -2.022194E-35   -2.299893E-38    3.885025E-40    2.704098E-42
         9.480923E-45
  31      0.00000        9.614780E-45    3.578431E-42    4.227092E-40   -5.665719E-38   -2.823703E-35   -5.043253E-33   -5.574219E-31   -4.246097E-29   -2.305204E-27
        -8.945938E-26   -2.444090E-24   -4.631865E-23   -6.263488E-22   -5.756246E-21   -3.656346E-20   -5.756408E-21   -6.264331E-22   -4.634012E-23   -2.447374E-24
        -8.974413E-26   -2.319816E-27   -4.293621E-29   -5.677296E-31   -5.196709E-33   -2.981602E-35   -6.769468E-38    3.730457E-40    3.451443E-42    9.480923E-45
          0.00000    

 CONCENTRATION WILL BE SAVED ON UNIT 1030 AT END OF TIME STEP   33, STRESS PERIOD    2


  MASS BUDGET FOR ENTIRE MODEL AT END OF TIME STEP   33, STRESS PERIOD   2
  ---------------------------------------------------------------------------------------------------

     CUMULATIVE MASS      M       RATES FOR THIS TIME STEP      M/T          PACKAGE NAME    
     ------------------                 ------------------------                     ----------------

           IN:                                      IN:
           ---                                      ---
     STORAGE-AQUEOUS =  5330913697.0827       STORAGE-AQUEOUS =     3768266.3986     MST                              
                 WEL =  7884000000.0000                   WEL =           0.0000     SSM_WEL-1                        
                 CHD =           0.0000                   CHD =           0.0000     SSM_CHD-1                        

            TOTAL IN = 13214913697.0827              TOTAL IN =     3768266.3986

          OUT:                                     OUT:
          ----                                     ----
     STORAGE-AQUEOUS =  7888590153.3703       STORAGE-AQUEOUS =         507.4263     MST                              
                 WEL =  5326323543.7125                   WEL =     3767758.9723     SSM_WEL-1                        
                 CHD =       7.5562E-18                   CHD =           0.0000     SSM_CHD-1                        

           TOTAL OUT = 13214913697.0827             TOTAL OUT =     3768266.3986

            IN - OUT =      -5.3406E-05              IN - OUT =      -1.0012E-07

 PERCENT DISCREPANCY =          -0.00     PERCENT DISCREPANCY =          -0.00




         TIME SUMMARY AT END OF TIME STEP   33 IN STRESS PERIOD    2
                    SECONDS     MINUTES      HOURS       DAYS        YEARS
                    -----------------------------------------------------------
   TIME STEP LENGTH 2.16991E+06  36165.      602.75      25.115     6.87602E-02
 STRESS PERIOD TIME 7.16070E+07 1.19345E+06  19891.      828.78      2.2691    
         TOTAL TIME 1.50447E+08 2.50745E+06  41791.      1741.3      4.7674    


end timestep


start timestep kper="2" kstp="34" mode="normal"

 UBDSV1 SAVING  STORAGE-AQUEOUS ON UNIT   1029 AT TIME STEP     34, STRESS PERIOD      2
 UBDSV1 SAVING     FLOW-JA-FACE ON UNIT   1029 AT TIME STEP     34, STRESS PERIOD      2
 UBDSV06 SAVING  SOURCE-SINK MIX IN MODEL GWT_P06-MF6      PACKAGE GWT_P06-MF6     CONNECTED TO MODEL GWT_P06-MF6      PACKAGE SSM              ON UNIT   1029 AT TIME STEP     34, STRESS PERIOD      2
1
  CONCENTRATION IN LAYER   1 AT END OF TIME STEP  34 IN STRESS PERIOD    2
  ---------------------------------------------------------------------------

                1               2               3               4               5               6               7               8               9              10
               11              12              13              14              15              16              17              18              19              20
               21              22              23              24              25              26              27              28              29              30
               31
 ................................................................................................................................................................................................................................................................................................................................................................................................................................................................................................................
   1      0.00000        9.885133E-45    3.532400E-42    3.535863E-40   -7.952885E-38   -3.243499E-35   -5.546378E-33   -5.992928E-31   -4.494346E-29   -2.410799E-27
        -9.266904E-26   -2.513443E-24   -4.739821E-23   -6.384747E-22   -5.844919E-21   -3.687507E-20   -5.844773E-21   -6.384043E-22   -4.738137E-23   -2.510888E-24
        -9.244025E-26   -2.398527E-27   -4.452622E-29   -5.898681E-31   -5.400920E-33   -3.089019E-35   -6.842565E-38    4.048159E-40    3.666697E-42    1.003167E-44
          0.00000    
   2     9.885133E-45    2.768902E-42    3.816866E-40   -2.995980E-38   -2.204771E-35   -4.490837E-33   -5.563183E-31   -4.770831E-29   -2.959704E-27   -1.346509E-25
        -4.475235E-24   -1.070009E-22   -1.820085E-21   -2.254279E-20   -1.820685E-19   -9.520872E-19   -1.820644E-19   -2.254065E-20   -1.819528E-21   -1.069053E-22
        -4.465416E-24   -1.340451E-25   -2.935872E-27   -4.707821E-29   -5.447303E-31   -4.340233E-33   -2.066858E-35   -2.128285E-38    4.171711E-40    2.855701E-42
         1.003358E-44
   3     3.532400E-42    3.816866E-40   -1.604694E-38   -1.708612E-35   -3.801786E-33   -5.145481E-31   -4.868246E-29   -3.373803E-27   -1.742438E-25   -6.720583E-24
        -1.919346E-22   -3.999965E-21   -6.069371E-20   -6.940874E-19   -5.102990E-18   -2.191672E-17   -5.102892E-18   -6.940325E-19   -6.067802E-20   -3.996834E-21
        -1.915592E-22   -6.693733E-24   -1.730202E-25   -3.336053E-27   -4.786004E-29   -5.015701E-31   -3.651764E-33   -1.581584E-35   -8.205633E-39    4.175736E-40
         3.669688E-42
   4     3.535863E-40   -2.995980E-38   -1.708612E-35   -3.557625E-33   -4.876214E-31   -4.850501E-29   -3.619544E-27   -2.050918E-25   -8.836330E-24   -2.877279E-22
        -7.000184E-21   -1.260482E-19   -1.705147E-18   -1.774325E-17   -1.278007E-16   -6.066709E-16   -1.277986E-16   -1.774220E-17   -1.704804E-18   -1.259647E-19
        -6.988101E-21   -2.867078E-22   -8.782067E-24   -2.031372E-25   -3.569332E-27   -4.755247E-29   -4.739712E-31   -3.407519E-33   -1.579824E-35   -2.106372E-38
         4.066289E-40
   5    -7.952885E-38   -2.204771E-35   -3.801786E-33   -4.876214E-31   -4.829102E-29   -3.727432E-27   -2.243119E-25   -1.047747E-23   -3.768634E-22   -1.033723E-20
        -2.150722E-19   -3.445276E-18   -4.358815E-17   -4.810064E-16   -1.893706E-15    1.044480E-14   -1.893648E-15   -4.809836E-16   -4.358268E-17   -3.443607E-18
        -2.147613E-19   -1.030526E-20   -3.748492E-22   -1.039238E-23   -2.217425E-25   -3.669455E-27   -4.728194E-29   -4.737358E-31   -3.647062E-33   -2.060942E-35
        -6.783956E-38
   6    -3.243499E-35   -4.490837E-33   -5.145481E-31   -4.850501E-29   -3.727432E-27   -2.307826E-25   -1.137156E-23   -4.404926E-22   -1.327696E-20   -3.111514E-19
        -5.810872E-18   -8.826016E-17   -1.086873E-15    6.564106E-15    4.586066E-13    5.176952E-12    4.586073E-13    6.564586E-15   -1.086761E-15   -8.823876E-17
        -5.805001E-18   -3.103667E-19   -1.321682E-20   -4.374798E-22   -1.126452E-23   -2.279320E-25   -3.668217E-27   -4.751542E-29   -5.008790E-31   -4.330447E-33
        -3.077458E-35
   7    -5.546378E-33   -5.563183E-31   -4.868246E-29   -3.619544E-27   -2.243119E-25   -1.137156E-23   -4.636122E-22   -1.501551E-20   -3.870087E-19   -8.173361E-18
        -1.404670E-16   -1.481863E-15    6.839843E-14    3.864819E-12    8.896337E-11    8.392956E-10    8.896337E-11    3.864822E-12    6.839983E-14   -1.481632E-15
        -1.404013E-16   -8.159558E-18   -3.856398E-19   -1.493236E-20   -4.601091E-22   -1.126168E-23   -2.216187E-25   -3.566021E-27   -4.779389E-29   -5.436608E-31
        -5.386060E-33
   8    -5.992928E-31   -4.770831E-29   -3.373803E-27   -2.050918E-25   -1.047747E-23   -4.404926E-22   -1.501551E-20   -4.160336E-19   -9.672519E-18   -1.818456E-16
        -1.157966E-15    2.362605E-13    1.585976E-11    5.674818E-10    1.160732E-08    1.020823E-07    1.160732E-08    5.674817E-10    1.585977E-11    2.362601E-13
        -1.157544E-15   -1.817100E-16   -9.650964E-18   -4.143490E-19   -1.492960E-20   -4.372987E-22   -1.038541E-23   -2.029427E-25   -3.331752E-27   -4.699900E-29
        -5.885908E-31
   9    -4.494346E-29   -2.959704E-27   -1.742438E-25   -8.836330E-24   -3.768634E-22   -1.327696E-20   -3.870087E-19   -9.672519E-18   -1.975368E-16   -5.259121E-16
         4.634869E-13    3.825800E-11    1.888088E-09    6.038507E-08    1.136856E-06    9.264230E-06    1.136856E-06    6.038507E-08    1.888088E-09    3.825803E-11
         4.634829E-13   -5.253144E-16   -1.973575E-16   -9.650047E-18   -3.855356E-19   -1.321065E-20   -3.746001E-22   -8.774431E-24   -1.728310E-25   -2.931915E-27
        -4.445295E-29
  10    -2.410799E-27   -1.346509E-25   -6.720583E-24   -2.877279E-22   -1.033723E-20   -3.111514E-19   -8.173361E-18   -1.818456E-16   -5.259121E-16    5.751825E-13
         5.848763E-11    3.729841E-09    1.633036E-07    4.689329E-06    7.945615E-05    5.852982E-04    7.945615E-05    4.689329E-06    1.633036E-07    3.729841E-09
         5.848769E-11    5.751750E-13   -5.253174E-16   -1.816976E-16   -8.157766E-18   -3.102452E-19   -1.029970E-20   -2.865144E-22   -6.688298E-24   -1.339160E-25
        -2.395802E-27
  11    -9.266904E-26   -4.475235E-24   -1.919346E-22   -7.000184E-21   -2.150722E-19   -5.810872E-18   -1.404670E-16   -1.157966E-15    4.634869E-13    5.848763E-11
         4.651024E-09    2.612487E-07    1.003798E-05    2.493144E-04    3.643865E-03    2.332572E-02    3.643865E-03    2.493144E-04    1.003798E-05    2.612486E-07
         4.651024E-09    5.848769E-11    4.634810E-13   -1.157553E-15   -1.403901E-16   -5.803765E-18   -2.146901E-19   -6.985174E-21   -1.914642E-22   -4.462836E-24
        -9.237822E-26
  12    -2.513443E-24   -1.070009E-22   -3.999965E-21   -1.260482E-19   -3.445276E-18   -8.826016E-17   -1.481863E-15    2.362605E-13    3.825800E-11    3.729841E-09
         2.612487E-07    1.276252E-05    4.120547E-04    8.319538E-03    9.771443E-02    0.507592        9.771443E-02    8.319538E-03    4.120547E-04    1.276252E-05
         2.612486E-07    3.729841E-09    3.825804E-11    2.362589E-13   -1.481618E-15   -8.823401E-17   -3.443163E-18   -1.259413E-19   -3.995923E-21   -1.068767E-22
        -2.510102E-24
  13    -4.739821E-23   -1.820085E-21   -6.069371E-20   -1.705147E-18   -4.358815E-17   -1.086873E-15    6.839843E-14    1.585976E-11    1.888088E-09    1.633036E-07
         1.003798E-05    4.120547E-04    1.052158E-02    0.156858         1.31339         4.91301         1.31339        0.156858        1.052158E-02    4.120547E-04
         1.003798E-05    1.633036E-07    1.888088E-09    1.585977E-11    6.839986E-14   -1.086744E-15   -4.358147E-17   -1.704715E-18   -6.067372E-20   -1.819370E-21
        -4.737644E-23
  14    -6.384747E-22   -2.254279E-20   -6.940874E-19   -1.774325E-17   -4.810064E-16    6.564106E-15    3.864819E-12    5.674818E-10    6.038507E-08    4.689329E-06
         2.493144E-04    8.319538E-03    0.156858         1.52204         7.66275         18.1581         7.66275         1.52204        0.156858        8.319538E-03
         2.493144E-04    4.689329E-06    6.038507E-08    5.674817E-10    3.864822E-12    6.564649E-15   -4.809799E-16   -1.774201E-17   -6.940217E-19   -2.254021E-20
        -6.383894E-22
  15    -5.844919E-21   -1.820685E-19   -5.102990E-18   -1.278007E-16   -1.893706E-15    4.586066E-13    8.896337E-11    1.160732E-08    1.136856E-06    7.945615E-05
         3.643865E-03    9.771443E-02     1.31339         7.66275         22.5347         32.0886         22.5347         7.66275         1.31339        9.771443E-02
         3.643865E-03    7.945615E-05    1.136856E-06    1.160732E-08    8.896337E-11    4.586074E-13   -1.893640E-15   -1.277984E-16   -5.102879E-18   -1.820639E-19
        -5.844756E-21
  16    -3.687507E-20   -9.520872E-19   -2.191672E-17   -6.066709E-16    1.044480E-14    5.176952E-12    8.392956E-10    1.020823E-07    9.264230E-06    5.852982E-04
         2.332572E-02    0.507592         4.91301         18.1581         32.0886         42.0251         32.0886         18.1581         4.91301        0.507592    
         2.332572E-02    5.852982E-04    9.264230E-06    1.020823E-07    8.392956E-10    5.176952E-12    1.044480E-14   -6.066709E-16   -2.191673E-17   -9.520872E-19
        -3.687507E-20
  17    -5.844773E-21   -1.820644E-19   -5.102892E-18   -1.277986E-16   -1.893648E-15    4.586073E-13    8.896337E-11    1.160732E-08    1.136856E-06    7.945615E-05
         3.643865E-03    9.771443E-02     1.31339         7.66275         22.5347         32.0886         22.5347         7.66275         1.31339        9.771443E-02
         3.643865E-03    7.945615E-05    1.136856E-06    1.160732E-08    8.896337E-11    4.586066E-13   -1.893706E-15   -1.278007E-16   -5.102990E-18   -1.820685E-19
        -5.844919E-21
  18    -6.384043E-22   -2.254065E-20   -6.940325E-19   -1.774220E-17   -4.809836E-16    6.564586E-15    3.864822E-12    5.674817E-10    6.038507E-08    4.689329E-06
         2.493144E-04    8.319538E-03    0.156858         1.52204         7.66275         18.1581         7.66275         1.52204        0.156858        8.319538E-03
         2.493144E-04    4.689329E-06    6.038507E-08    5.674818E-10    3.864819E-12    6.564106E-15   -4.810064E-16   -1.774325E-17   -6.940874E-19   -2.254279E-20
        -6.384747E-22
  19    -4.738137E-23   -1.819528E-21   -6.067802E-20   -1.704804E-18   -4.358268E-17   -1.086761E-15    6.839983E-14    1.585977E-11    1.888088E-09    1.633036E-07
         1.003798E-05    4.120547E-04    1.052158E-02    0.156858         1.31339         4.91301         1.31339        0.156858        1.052158E-02    4.120547E-04
         1.003798E-05    1.633036E-07    1.888088E-09    1.585976E-11    6.839843E-14   -1.086873E-15   -4.358815E-17   -1.705147E-18   -6.069371E-20   -1.820085E-21
        -4.739821E-23
  20    -2.510888E-24   -1.069053E-22   -3.996834E-21   -1.259647E-19   -3.443607E-18   -8.823876E-17   -1.481632E-15    2.362601E-13    3.825803E-11    3.729841E-09
         2.612486E-07    1.276252E-05    4.120547E-04    8.319538E-03    9.771443E-02    0.507592        9.771443E-02    8.319538E-03    4.120547E-04    1.276252E-05
         2.612487E-07    3.729841E-09    3.825800E-11    2.362605E-13   -1.481863E-15   -8.826016E-17   -3.445276E-18   -1.260482E-19   -3.999964E-21   -1.070009E-22
        -2.513443E-24
  21    -9.244025E-26   -4.465416E-24   -1.915592E-22   -6.988101E-21   -2.147613E-19   -5.805001E-18   -1.404013E-16   -1.157544E-15    4.634829E-13    5.848769E-11
         4.651024E-09    2.612486E-07    1.003798E-05    2.493144E-04    3.643865E-03    2.332572E-02    3.643865E-03    2.493144E-04    1.003798E-05    2.612487E-07
         4.651024E-09    5.848763E-11    4.634869E-13   -1.157966E-15   -1.404670E-16   -5.810872E-18   -2.150722E-19   -7.000184E-21   -1.919346E-22   -4.475235E-24
        -9.266904E-26
  22    -2.398527E-27   -1.340451E-25   -6.693733E-24   -2.867078E-22   -1.030526E-20   -3.103667E-19   -8.159558E-18   -1.817100E-16   -5.253144E-16    5.751750E-13
         5.848769E-11    3.729841E-09    1.633036E-07    4.689329E-06    7.945615E-05    5.852982E-04    7.945615E-05    4.689329E-06    1.633036E-07    3.729841E-09
         5.848763E-11    5.751825E-13   -5.259121E-16   -1.818456E-16   -8.173361E-18   -3.111514E-19   -1.033723E-20   -2.877279E-22   -6.720583E-24   -1.346509E-25
        -2.410799E-27
  23    -4.452622E-29   -2.935872E-27   -1.730202E-25   -8.782067E-24   -3.748492E-22   -1.321682E-20   -3.856398E-19   -9.650964E-18   -1.973575E-16   -5.253174E-16
         4.634810E-13    3.825804E-11    1.888088E-09    6.038507E-08    1.136856E-06    9.264230E-06    1.136856E-06    6.038507E-08    1.888088E-09    3.825800E-11
         4.634869E-13   -5.259121E-16   -1.975368E-16   -9.672519E-18   -3.870087E-19   -1.327696E-20   -3.768634E-22   -8.836330E-24   -1.742438E-25   -2.959704E-27
        -4.494346E-29
  24    -5.898681E-31   -4.707821E-29   -3.336053E-27   -2.031372E-25   -1.039238E-23   -4.374798E-22   -1.493236E-20   -4.143490E-19   -9.650047E-18   -1.816976E-16
        -1.157553E-15    2.362589E-13    1.585977E-11    5.674817E-10    1.160732E-08    1.020823E-07    1.160732E-08    5.674818E-10    1.585976E-11    2.362605E-13
        -1.157966E-15   -1.818456E-16   -9.672519E-18   -4.160336E-19   -1.501551E-20   -4.404926E-22   -1.047747E-23   -2.050918E-25   -3.373803E-27   -4.770831E-29
        -5.992928E-31
  25    -5.400920E-33   -5.447303E-31   -4.786004E-29   -3.569332E-27   -2.217425E-25   -1.126452E-23   -4.601091E-22   -1.492960E-20   -3.855356E-19   -8.157766E-18
        -1.403901E-16   -1.481618E-15    6.839986E-14    3.864822E-12    8.896337E-11    8.392956E-10    8.896337E-11    3.864819E-12    6.839843E-14   -1.481863E-15
        -1.404670E-16   -8.173361E-18   -3.870087E-19   -1.501551E-20   -4.636122E-22   -1.137156E-23   -2.243119E-25   -3.619544E-27   -4.868246E-29   -5.563183E-31
        -5.546378E-33
  26    -3.089019E-35   -4.340233E-33   -5.015701E-31   -4.755247E-29   -3.669455E-27   -2.279320E-25   -1.126168E-23   -4.372987E-22   -1.321065E-20   -3.102452E-19
        -5.803765E-18   -8.823401E-17   -1.086744E-15    6.564649E-15    4.586074E-13    5.176952E-12    4.586066E-13    6.564106E-15   -1.086873E-15   -8.826016E-17
        -5.810872E-18   -3.111514E-19   -1.327696E-20   -4.404926E-22   -1.137156E-23   -2.307826E-25   -3.727432E-27   -4.850501E-29   -5.145481E-31   -4.490837E-33
        -3.243499E-35
  27    -6.842565E-38   -2.066858E-35   -3.651764E-33   -4.739712E-31   -4.728194E-29   -3.668217E-27   -2.216187E-25   -1.038541E-23   -3.746001E-22   -1.029970E-20
        -2.146901E-19   -3.443163E-18   -4.358147E-17   -4.809799E-16   -1.893640E-15    1.044480E-14   -1.893706E-15   -4.810064E-16   -4.358815E-17   -3.445276E-18
        -2.150722E-19   -1.033723E-20   -3.768634E-22   -1.047747E-23   -2.243119E-25   -3.727432E-27   -4.829102E-29   -4.876213E-31   -3.801786E-33   -2.204771E-35
        -7.952885E-38
  28     4.048159E-40   -2.128285E-38   -1.581584E-35   -3.407519E-33   -4.737358E-31   -4.751542E-29   -3.566021E-27   -2.029427E-25   -8.774431E-24   -2.865144E-22
        -6.985174E-21   -1.259413E-19   -1.704715E-18   -1.774201E-17   -1.277984E-16   -6.066709E-16   -1.278007E-16   -1.774325E-17   -1.705147E-18   -1.260482E-19
        -7.000184E-21   -2.877279E-22   -8.836330E-24   -2.050918E-25   -3.619544E-27   -4.850501E-29   -4.876213E-31   -3.557625E-33   -1.708612E-35   -2.995979E-38
         3.535863E-40
  29     3.666697E-42    4.171711E-40   -8.205633E-39   -1.579824E-35   -3.647062E-33   -5.008790E-31   -4.779389E-29   -3.331752E-27   -1.728310E-25   -6.688298E-24
        -1.914642E-22   -3.995923E-21   -6.067372E-20   -6.940217E-19   -5.102879E-18   -2.191673E-17   -5.102990E-18   -6.940874E-19   -6.069371E-20   -3.999964E-21
        -1.919346E-22   -6.720583E-24   -1.742438E-25   -3.373803E-27   -4.868246E-29   -5.145481E-31   -3.801786E-33   -1.708612E-35   -1.604694E-38    3.816866E-40
         3.532400E-42
  30     1.003167E-44    2.855701E-42    4.175736E-40   -2.106372E-38   -2.060942E-35   -4.330447E-33   -5.436608E-31   -4.699900E-29   -2.931915E-27   -1.339160E-25
        -4.462836E-24   -1.068767E-22   -1.819370E-21   -2.254021E-20   -1.820639E-19   -9.520872E-19   -1.820685E-19   -2.254279E-20   -1.820085E-21   -1.070009E-22
        -4.475235E-24   -1.346509E-25   -2.959704E-27   -4.770831E-29   -5.563183E-31   -4.490837E-33   -2.204771E-35   -2.995979E-38    3.816866E-40    2.768902E-42
         9.885133E-45
  31      0.00000        1.003358E-44    3.669688E-42    4.066289E-40   -6.783956E-38   -3.077458E-35   -5.386060E-33   -5.885908E-31   -4.445295E-29   -2.395802E-27
        -9.237822E-26   -2.510102E-24   -4.737644E-23   -6.383894E-22   -5.844756E-21   -3.687507E-20   -5.844919E-21   -6.384747E-22   -4.739821E-23   -2.513443E-24
        -9.266904E-26   -2.410799E-27   -4.494346E-29   -5.992928E-31   -5.546378E-33   -3.243499E-35   -7.952885E-38    3.535863E-40    3.532400E-42    9.885133E-45
          0.00000    

 CONCENTRATION WILL BE SAVED ON UNIT 1030 AT END OF TIME STEP   34, STRESS PERIOD    2


  MASS BUDGET FOR ENTIRE MODEL AT END OF TIME STEP   34, STRESS PERIOD   2
  ---------------------------------------------------------------------------------------------------

     CUMULATIVE MASS      M       RATES FOR THIS TIME STEP      M/T          PACKAGE NAME    
     ------------------                 ------------------------                     ----------------

           IN:                                      IN:
           ---                                      ---
     STORAGE-AQUEOUS =  5422116180.2489       STORAGE-AQUEOUS =     3631441.3389     MST                              
                 WEL =  7884000000.0000                   WEL =           0.0000     SSM_WEL-1                        
                 CHD =           0.0000                   CHD =           0.0000     SSM_CHD-1                        

            TOTAL IN = 13306116180.2489              TOTAL IN =     3631441.3389

          OUT:                                     OUT:
          ----                                     ----
     STORAGE-AQUEOUS =  7888601958.2128       STORAGE-AQUEOUS =         470.0376     MST                              
                 WEL =  5417514222.0362                   WEL =     3630971.3013     SSM_WEL-1                        
                 CHD =       7.5562E-18                   CHD =           0.0000     SSM_CHD-1                        

           TOTAL OUT = 13306116180.2490             TOTAL OUT =     3631441.3389

            IN - OUT =      -5.5313E-05              IN - OUT =      -9.5461E-08

 PERCENT DISCREPANCY =          -0.00     PERCENT DISCREPANCY =          -0.00




         TIME SUMMARY AT END OF TIME STEP   34 IN STRESS PERIOD    2
                    SECONDS     MINUTES      HOURS       DAYS        YEARS
                    -----------------------------------------------------------
   TIME STEP LENGTH 2.16991E+06  36165.      602.75      25.115     6.87602E-02
 STRESS PERIOD TIME 7.37769E+07 1.22961E+06  20494.      853.90      2.3378    
         TOTAL TIME 1.52617E+08 2.54361E+06  42394.      1766.4      4.8361    


end timestep


start timestep kper="2" kstp="35" mode="normal"

 UBDSV1 SAVING  STORAGE-AQUEOUS ON UNIT   1029 AT TIME STEP     35, STRESS PERIOD      2
 UBDSV1 SAVING     FLOW-JA-FACE ON UNIT   1029 AT TIME STEP     35, STRESS PERIOD      2
 UBDSV06 SAVING  SOURCE-SINK MIX IN MODEL GWT_P06-MF6      PACKAGE GWT_P06-MF6     CONNECTED TO MODEL GWT_P06-MF6      PACKAGE SSM              ON UNIT   1029 AT TIME STEP     35, STRESS PERIOD      2
1
  CONCENTRATION IN LAYER   1 AT END OF TIME STEP  35 IN STRESS PERIOD    2
  ---------------------------------------------------------------------------

                1               2               3               4               5               6               7               8               9              10
               11              12              13              14              15              16              17              18              19              20
               21              22              23              24              25              26              27              28              29              30
               31
 ................................................................................................................................................................................................................................................................................................................................................................................................................................................................................................................
   1      0.00000        1.029821E-44    3.609495E-42    3.306985E-40   -9.237606E-38   -3.522523E-35   -5.914974E-33   -6.322975E-31   -4.702792E-29   -2.504698E-27
        -9.567104E-26   -2.580941E-24   -4.847512E-23   -6.506863E-22   -5.934339E-21   -3.718829E-20   -5.934191E-21   -6.506151E-22   -4.845804E-23   -2.578342E-24
        -9.543740E-26   -2.492105E-27   -4.659747E-29   -6.225183E-31   -5.763124E-33   -3.360214E-35   -8.062813E-38    3.853550E-40    3.754482E-42    1.046026E-44
          0.00000    
   2     1.029821E-44    2.832093E-42    3.730872E-40   -3.752776E-38   -2.399132E-35   -4.786113E-33   -5.866407E-31   -4.992046E-29   -3.076550E-27   -1.391278E-25
        -4.598536E-24   -1.094197E-22   -1.854367E-21   -2.289195E-20   -1.843483E-19   -9.583672E-19   -1.843441E-19   -2.288979E-20   -1.853804E-21   -1.093228E-22
        -4.588544E-24   -1.385086E-25   -3.052072E-27   -4.927003E-29   -5.746178E-31   -4.629048E-33   -2.254528E-35   -2.837577E-38    4.108018E-40    2.925554E-42
         1.046240E-44
   3     3.609495E-42    3.730872E-40   -2.208343E-38   -1.862521E-35   -4.048705E-33   -5.421277E-31   -5.091339E-29   -3.506666E-27   -1.800882E-25   -6.909232E-24
        -1.963493E-22   -4.074657E-21   -6.163773E-20   -7.025473E-19   -5.155455E-18   -2.200900E-17   -5.155356E-18   -7.024922E-19   -6.162192E-20   -4.071494E-21
        -1.959687E-22   -6.881888E-24   -1.788364E-25   -3.467870E-27   -5.006433E-29   -5.286687E-31   -3.892415E-33   -1.729533E-35   -1.382424E-38    4.112350E-40
         3.757758E-42
   4     3.306985E-40   -3.752776E-38   -1.862521E-35   -3.787391E-33   -5.134223E-31   -5.069754E-29   -3.760684E-27   -2.119506E-25   -9.085884E-24   -2.944493E-22
        -7.133522E-21   -1.280525E-19   -1.728705E-18   -1.788192E-17   -1.274615E-16   -5.928622E-16   -1.274595E-16   -1.788087E-17   -1.728360E-18   -1.279685E-19
        -7.121316E-21   -2.934144E-22   -9.030587E-24   -2.099499E-25   -3.709068E-27   -4.971424E-29   -4.992721E-31   -3.631083E-33   -1.727678E-35   -2.814247E-38
         3.873119E-40
   5    -9.237606E-38   -2.399132E-35   -4.048705E-33   -5.134223E-31   -5.046090E-29   -3.871626E-27   -2.317666E-25   -1.077301E-23   -3.857359E-22   -1.053872E-20
        -2.186549E-19   -3.496305E-18   -4.389877E-17   -4.711651E-16   -1.509395E-15    1.423130E-14   -1.509337E-15   -4.711420E-16   -4.389329E-17   -3.494633E-18
        -2.183422E-19   -1.050642E-20   -3.836914E-22   -1.068625E-23   -2.291359E-25   -3.812022E-27   -4.941928E-29   -4.990271E-31   -3.887489E-33   -2.248282E-35
        -8.000256E-38
   6    -3.522523E-35   -4.786113E-33   -5.421277E-31   -5.069754E-29   -3.871626E-27   -2.384297E-25   -1.169152E-23   -4.508883E-22   -1.353969E-20   -3.165239E-19
        -5.897806E-18   -8.833732E-17   -1.012874E-15    9.916772E-15    5.271445E-13    5.771149E-12    5.271453E-13    9.917247E-15   -1.012761E-15   -8.831600E-17
        -5.891933E-18   -3.157346E-19   -1.347889E-20   -4.478291E-22   -1.158236E-23   -2.355108E-25   -3.810746E-27   -4.967587E-29   -5.279492E-31   -4.618788E-33
        -3.347988E-35
   7    -5.914974E-33   -5.866407E-31   -5.091339E-29   -3.760684E-27   -2.317666E-25   -1.169152E-23   -4.745574E-22   -1.531462E-20   -3.938108E-19   -8.292436E-18
        -1.394604E-16   -1.213590E-15    8.347295E-14    4.353588E-12    9.818617E-11    9.135002E-10    9.818616E-11    4.353591E-12    8.347433E-14   -1.213360E-15
        -1.393953E-16   -8.278634E-18   -3.924337E-19   -1.523056E-20   -4.709997E-22   -1.157946E-23   -2.290088E-25   -3.705656E-27   -4.999583E-29   -5.735040E-31
        -5.747538E-33
   8    -6.322975E-31   -4.992046E-29   -3.506666E-27   -2.119506E-25   -1.077301E-23   -4.508883E-22   -1.531462E-20   -4.233824E-19   -9.809905E-18   -1.797839E-16
        -5.631236E-16    2.775895E-13    1.772625E-11    6.226309E-10    1.255405E-08    1.089628E-07    1.255405E-08    6.226309E-10    1.772625E-11    2.775892E-13
        -5.627078E-16   -1.796492E-16   -9.788356E-18   -4.216876E-19   -1.522777E-20   -4.476451E-22   -1.067914E-23   -2.097505E-25   -3.463441E-27   -4.918804E-29
        -6.211887E-31
   9    -4.702792E-29   -3.076550E-27   -1.800882E-25   -9.085884E-24   -3.857359E-22   -1.353969E-20   -3.938108E-19   -9.809905E-18   -1.950726E-16    3.434032E-16
         5.374560E-13    4.258313E-11    2.062914E-09    6.494960E-08    1.205227E-06    9.689846E-06    1.205227E-06    6.494960E-08    2.062914E-09    4.258315E-11
         5.374522E-13    3.439836E-16   -1.948943E-16   -9.787439E-18   -3.923289E-19   -1.347266E-20   -3.834384E-22   -9.022797E-24   -1.786425E-25   -3.048001E-27
        -4.652173E-29
  10    -2.504698E-27   -1.391278E-25   -6.909232E-24   -2.944493E-22   -1.053872E-20   -3.165239E-19   -8.292436E-18   -1.797839E-16    3.434032E-16    6.646683E-13
         6.497621E-11    4.064565E-09    1.749229E-07    4.941663E-06    8.249143E-05    5.994663E-04    8.249143E-05    4.941663E-06    1.749229E-07    4.064565E-09
         6.497627E-11    6.646610E-13    3.439796E-16   -1.796369E-16   -8.276844E-18   -3.156124E-19   -1.050080E-20   -2.932181E-22   -6.876350E-24   -1.383765E-25
        -2.489306E-27
  11    -9.567104E-26   -4.598536E-24   -1.963493E-22   -7.133522E-21   -2.186549E-19   -5.897806E-18   -1.394604E-16   -5.631236E-16    5.374560E-13    6.497621E-11
         5.063904E-09    2.792160E-07    1.053469E-05    2.572056E-04    3.702708E-03    2.339003E-02    3.702708E-03    2.572056E-04    1.053469E-05    2.792160E-07
         5.063904E-09    6.497627E-11    5.374504E-13   -5.627189E-16   -1.393842E-16   -5.890698E-18   -2.182706E-19   -7.118360E-21   -1.958723E-22   -4.585918E-24
        -9.537404E-26
  12    -2.580941E-24   -1.094197E-22   -4.074657E-21   -1.280525E-19   -3.496305E-18   -8.833732E-17   -1.213590E-15    2.775895E-13    4.258313E-11    4.064565E-09
         2.792160E-07    1.337438E-05    4.235239E-04    8.400038E-03    9.720422E-02    0.498902        9.720422E-02    8.400038E-03    4.235239E-04    1.337438E-05
         2.792160E-07    4.064565E-09    4.258316E-11    2.775880E-13   -1.213347E-15   -8.831129E-17   -3.494189E-18   -1.279449E-19   -4.070575E-21   -1.092938E-22
        -2.577543E-24
  13    -4.847512E-23   -1.854367E-21   -6.163773E-20   -1.728705E-18   -4.389877E-17   -1.012874E-15    8.347295E-14    1.772625E-11    2.062914E-09    1.749229E-07
         1.053469E-05    4.235239E-04    1.059678E-02    0.155159         1.28211         4.75607         1.28211        0.155159        1.059678E-02    4.235239E-04
         1.053469E-05    1.749229E-07    2.062914E-09    1.772626E-11    8.347436E-14   -1.012744E-15   -4.389207E-17   -1.728271E-18   -6.161760E-20   -1.853645E-21
        -4.845304E-23
  14    -6.506863E-22   -2.289195E-20   -7.025473E-19   -1.788192E-17   -4.711651E-16    9.916772E-15    4.353588E-12    6.226309E-10    6.494960E-08    4.941663E-06
         2.572056E-04    8.400038E-03    0.155159         1.48097         7.39365         17.4831         7.39365         1.48097        0.155159        8.400038E-03
         2.572056E-04    4.941663E-06    6.494960E-08    6.226309E-10    4.353591E-12    9.917309E-15   -4.711384E-16   -1.788068E-17   -7.024813E-19   -2.288935E-20
        -6.506000E-22
  15    -5.934339E-21   -1.843483E-19   -5.155455E-18   -1.274615E-16   -1.509395E-15    5.271445E-13    9.818617E-11    1.255405E-08    1.205227E-06    8.249143E-05
         3.702708E-03    9.720422E-02     1.28211         7.39365         21.7182         30.8998         21.7182         7.39365         1.28211        9.720422E-02
         3.702708E-03    8.249143E-05    1.205227E-06    1.255405E-08    9.818616E-11    5.271454E-13   -1.509329E-15   -1.274592E-16   -5.155344E-18   -1.843436E-19
        -5.934174E-21
  16    -3.718829E-20   -9.583672E-19   -2.200900E-17   -5.928622E-16    1.423130E-14    5.771149E-12    9.135002E-10    1.089628E-07    9.689846E-06    5.994663E-04
         2.339003E-02    0.498902         4.75607         17.4831         30.8998         40.4942         30.8998         17.4831         4.75607        0.498902    
         2.339003E-02    5.994663E-04    9.689846E-06    1.089628E-07    9.135002E-10    5.771149E-12    1.423131E-14   -5.928622E-16   -2.200900E-17   -9.583672E-19
        -3.718829E-20
  17    -5.934191E-21   -1.843441E-19   -5.155356E-18   -1.274595E-16   -1.509337E-15    5.271453E-13    9.818616E-11    1.255405E-08    1.205227E-06    8.249143E-05
         3.702708E-03    9.720422E-02     1.28211         7.39365         21.7182         30.8998         21.7182         7.39365         1.28211        9.720422E-02
         3.702708E-03    8.249143E-05    1.205227E-06    1.255405E-08    9.818617E-11    5.271445E-13   -1.509395E-15   -1.274615E-16   -5.155455E-18   -1.843483E-19
        -5.934339E-21
  18    -6.506151E-22   -2.288979E-20   -7.024922E-19   -1.788087E-17   -4.711420E-16    9.917247E-15    4.353591E-12    6.226309E-10    6.494960E-08    4.941663E-06
         2.572056E-04    8.400038E-03    0.155159         1.48097         7.39365         17.4831         7.39365         1.48097        0.155159        8.400038E-03
         2.572056E-04    4.941663E-06    6.494960E-08    6.226309E-10    4.353588E-12    9.916772E-15   -4.711650E-16   -1.788192E-17   -7.025473E-19   -2.289195E-20
        -6.506863E-22
  19    -4.845804E-23   -1.853804E-21   -6.162192E-20   -1.728360E-18   -4.389329E-17   -1.012761E-15    8.347433E-14    1.772625E-11    2.062914E-09    1.749229E-07
         1.053469E-05    4.235239E-04    1.059678E-02    0.155159         1.28211         4.75607         1.28211        0.155159        1.059678E-02    4.235239E-04
         1.053469E-05    1.749229E-07    2.062914E-09    1.772625E-11    8.347295E-14   -1.012874E-15   -4.389877E-17   -1.728705E-18   -6.163773E-20   -1.854367E-21
        -4.847512E-23
  20    -2.578342E-24   -1.093228E-22   -4.071494E-21   -1.279685E-19   -3.494633E-18   -8.831600E-17   -1.213360E-15    2.775892E-13    4.258315E-11    4.064565E-09
         2.792160E-07    1.337438E-05    4.235239E-04    8.400038E-03    9.720422E-02    0.498902        9.720422E-02    8.400038E-03    4.235239E-04    1.337438E-05
         2.792160E-07    4.064565E-09    4.258313E-11    2.775895E-13   -1.213590E-15   -8.833732E-17   -3.496305E-18   -1.280525E-19   -4.074657E-21   -1.094197E-22
        -2.580941E-24
  21    -9.543740E-26   -4.588544E-24   -1.959687E-22   -7.121316E-21   -2.183422E-19   -5.891933E-18   -1.393953E-16   -5.627078E-16    5.374522E-13    6.497627E-11
         5.063904E-09    2.792160E-07    1.053469E-05    2.572056E-04    3.702708E-03    2.339003E-02    3.702708E-03    2.572056E-04    1.053469E-05    2.792160E-07
         5.063904E-09    6.497621E-11    5.374560E-13   -5.631236E-16   -1.394604E-16   -5.897806E-18   -2.186549E-19   -7.133522E-21   -1.963493E-22   -4.598536E-24
        -9.567104E-26
  22    -2.492105E-27   -1.385086E-25   -6.881888E-24   -2.934144E-22   -1.050642E-20   -3.157346E-19   -8.278634E-18   -1.796492E-16    3.439836E-16    6.646610E-13
         6.497627E-11    4.064565E-09    1.749229E-07    4.941663E-06    8.249143E-05    5.994663E-04    8.249143E-05    4.941663E-06    1.749229E-07    4.064565E-09
         6.497621E-11    6.646683E-13    3.434032E-16   -1.797839E-16   -8.292436E-18   -3.165239E-19   -1.053872E-20   -2.944493E-22   -6.909232E-24   -1.391278E-25
        -2.504698E-27
  23    -4.659747E-29   -3.052072E-27   -1.788364E-25   -9.030587E-24   -3.836914E-22   -1.347889E-20   -3.924337E-19   -9.788356E-18   -1.948943E-16    3.439796E-16
         5.374504E-13    4.258316E-11    2.062914E-09    6.494960E-08    1.205227E-06    9.689846E-06    1.205227E-06    6.494960E-08    2.062914E-09    4.258313E-11
         5.374560E-13    3.434032E-16   -1.950726E-16   -9.809905E-18   -3.938108E-19   -1.353969E-20   -3.857359E-22   -9.085884E-24   -1.800882E-25   -3.076550E-27
        -4.702792E-29
  24    -6.225183E-31   -4.927003E-29   -3.467870E-27   -2.099499E-25   -1.068625E-23   -4.478291E-22   -1.523056E-20   -4.216876E-19   -9.787439E-18   -1.796369E-16
        -5.627189E-16    2.775880E-13    1.772626E-11    6.226309E-10    1.255405E-08    1.089628E-07    1.255405E-08    6.226309E-10    1.772625E-11    2.775895E-13
        -5.631236E-16   -1.797839E-16   -9.809905E-18   -4.233824E-19   -1.531462E-20   -4.508883E-22   -1.077301E-23   -2.119506E-25   -3.506666E-27   -4.992046E-29
        -6.322975E-31
  25    -5.763124E-33   -5.746178E-31   -5.006433E-29   -3.709068E-27   -2.291359E-25   -1.158236E-23   -4.709997E-22   -1.522777E-20   -3.923289E-19   -8.276844E-18
        -1.393842E-16   -1.213347E-15    8.347436E-14    4.353591E-12    9.818616E-11    9.135002E-10    9.818617E-11    4.353588E-12    8.347295E-14   -1.213590E-15
        -1.394604E-16   -8.292436E-18   -3.938108E-19   -1.531462E-20   -4.745574E-22   -1.169152E-23   -2.317666E-25   -3.760684E-27   -5.091339E-29   -5.866407E-31
        -5.914974E-33
  26    -3.360214E-35   -4.629048E-33   -5.286687E-31   -4.971424E-29   -3.812022E-27   -2.355108E-25   -1.157946E-23   -4.476451E-22   -1.347266E-20   -3.156124E-19
        -5.890698E-18   -8.831129E-17   -1.012744E-15    9.917309E-15    5.271454E-13    5.771149E-12    5.271445E-13    9.916772E-15   -1.012874E-15   -8.833732E-17
        -5.897806E-18   -3.165239E-19   -1.353969E-20   -4.508883E-22   -1.169152E-23   -2.384297E-25   -3.871626E-27   -5.069754E-29   -5.421277E-31   -4.786113E-33
        -3.522523E-35
  27    -8.062813E-38   -2.254528E-35   -3.892415E-33   -4.992721E-31   -4.941928E-29   -3.810746E-27   -2.290088E-25   -1.067914E-23   -3.834384E-22   -1.050080E-20
        -2.182706E-19   -3.494189E-18   -4.389207E-17   -4.711384E-16   -1.509329E-15    1.423131E-14   -1.509395E-15   -4.711650E-16   -4.389877E-17   -3.496305E-18
        -2.186549E-19   -1.053872E-20   -3.857359E-22   -1.077301E-23   -2.317666E-25   -3.871626E-27   -5.046090E-29   -5.134223E-31   -4.048705E-33   -2.399132E-35
        -9.237606E-38
  28     3.853550E-40   -2.837577E-38   -1.729533E-35   -3.631083E-33   -4.990271E-31   -4.967587E-29   -3.705656E-27   -2.097505E-25   -9.022797E-24   -2.932181E-22
        -7.118360E-21   -1.279449E-19   -1.728271E-18   -1.788068E-17   -1.274592E-16   -5.928622E-16   -1.274615E-16   -1.788192E-17   -1.728705E-18   -1.280525E-19
        -7.133522E-21   -2.944493E-22   -9.085884E-24   -2.119506E-25   -3.760684E-27   -5.069754E-29   -5.134223E-31   -3.787391E-33   -1.862521E-35   -3.752776E-38
         3.306985E-40
  29     3.754482E-42    4.108018E-40   -1.382424E-38   -1.727678E-35   -3.887489E-33   -5.279492E-31   -4.999583E-29   -3.463441E-27   -1.786425E-25   -6.876350E-24
        -1.958723E-22   -4.070575E-21   -6.161760E-20   -7.024813E-19   -5.155344E-18   -2.200900E-17   -5.155455E-18   -7.025473E-19   -6.163773E-20   -4.074657E-21
        -1.963493E-22   -6.909232E-24   -1.800882E-25   -3.506666E-27   -5.091339E-29   -5.421277E-31   -4.048705E-33   -1.862521E-35   -2.208342E-38    3.730872E-40
         3.609495E-42
  30     1.046026E-44    2.925554E-42    4.112350E-40   -2.814247E-38   -2.248282E-35   -4.618788E-33   -5.735040E-31   -4.918804E-29   -3.048001E-27   -1.383765E-25
        -4.585918E-24   -1.092938E-22   -1.853645E-21   -2.288935E-20   -1.843436E-19   -9.583672E-19   -1.843483E-19   -2.289195E-20   -1.854367E-21   -1.094197E-22
        -4.598536E-24   -1.391278E-25   -3.076550E-27   -4.992046E-29   -5.866407E-31   -4.786113E-33   -2.399132E-35   -3.752776E-38    3.730872E-40    2.832093E-42
         1.029821E-44
  31      0.00000        1.046240E-44    3.757758E-42    3.873119E-40   -8.000256E-38   -3.347988E-35   -5.747538E-33   -6.211887E-31   -4.652173E-29   -2.489306E-27
        -9.537404E-26   -2.577543E-24   -4.845304E-23   -6.506000E-22   -5.934174E-21   -3.718829E-20   -5.934339E-21   -6.506863E-22   -4.847512E-23   -2.580941E-24
        -9.567104E-26   -2.504698E-27   -4.702792E-29   -6.322975E-31   -5.914974E-33   -3.522523E-35   -9.237606E-38    3.306985E-40    3.609495E-42    1.029821E-44
          0.00000    

 CONCENTRATION WILL BE SAVED ON UNIT 1030 AT END OF TIME STEP   35, STRESS PERIOD    2


  MASS BUDGET FOR ENTIRE MODEL AT END OF TIME STEP   35, STRESS PERIOD   2
  ---------------------------------------------------------------------------------------------------

     CUMULATIVE MASS      M       RATES FOR THIS TIME STEP      M/T          PACKAGE NAME    
     ------------------                 ------------------------                     ----------------

           IN:                                      IN:
           ---                                      ---
     STORAGE-AQUEOUS =  5509995773.8011       STORAGE-AQUEOUS =     3499132.6748     MST                              
                 WEL =  7884000000.0000                   WEL =           0.0000     SSM_WEL-1                        
                 CHD =           0.0000                   CHD =           0.0000     SSM_CHD-1                        

            TOTAL IN = 13393995773.8011              TOTAL IN =     3499132.6748

          OUT:                                     OUT:
          ----                                     ----
     STORAGE-AQUEOUS =  7888612842.5711       STORAGE-AQUEOUS =         433.3863     MST                              
                 WEL =  5505382931.2301                   WEL =     3498699.2885     SSM_WEL-1                        
                 CHD =       7.5562E-18                   CHD =           0.0000     SSM_CHD-1                        

           TOTAL OUT = 13393995773.8012             TOTAL OUT =     3499132.6748

            IN - OUT =      -5.9128E-05              IN - OUT =      -9.4064E-08

 PERCENT DISCREPANCY =          -0.00     PERCENT DISCREPANCY =          -0.00




         TIME SUMMARY AT END OF TIME STEP   35 IN STRESS PERIOD    2
                    SECONDS     MINUTES      HOURS       DAYS        YEARS
                    -----------------------------------------------------------
   TIME STEP LENGTH 2.16991E+06  36165.      602.75      25.115     6.87602E-02
 STRESS PERIOD TIME 7.59468E+07 1.26578E+06  21096.      879.01      2.4066    
         TOTAL TIME 1.54787E+08 2.57978E+06  42996.      1791.5      4.9049    


end timestep


start timestep kper="2" kstp="36" mode="normal"

 UBDSV1 SAVING  STORAGE-AQUEOUS ON UNIT   1029 AT TIME STEP     36, STRESS PERIOD      2
 UBDSV1 SAVING     FLOW-JA-FACE ON UNIT   1029 AT TIME STEP     36, STRESS PERIOD      2
 UBDSV06 SAVING  SOURCE-SINK MIX IN MODEL GWT_P06-MF6      PACKAGE GWT_P06-MF6     CONNECTED TO MODEL GWT_P06-MF6      PACKAGE SSM              ON UNIT   1029 AT TIME STEP     36, STRESS PERIOD      2
1
  CONCENTRATION IN LAYER   1 AT END OF TIME STEP  36 IN STRESS PERIOD    2
  ---------------------------------------------------------------------------

                1               2               3               4               5               6               7               8               9              10
               11              12              13              14              15              16              17              18              19              20
               21              22              23              24              25              26              27              28              29              30
               31
 ................................................................................................................................................................................................................................................................................................................................................................................................................................................................................................................
   1      0.00000        1.071973E-44    3.682062E-42    3.040962E-40   -1.063008E-37   -3.819579E-35   -6.303341E-33   -6.667979E-31   -4.919199E-29   -2.601585E-27
        -9.875170E-26   -2.649893E-24   -4.957109E-23   -6.630695E-22   -6.024672E-21   -3.750311E-20   -6.024523E-21   -6.629974E-22   -4.955377E-23   -2.647249E-24
        -9.851312E-26   -2.588665E-27   -4.874801E-29   -6.566532E-31   -6.144863E-33   -3.649105E-35   -9.387659E-38    3.623714E-40    3.838428E-42    1.089850E-44
          0.00000    
   2     1.071973E-44    2.893327E-42    3.625537E-40   -4.574096E-38   -2.605887E-35   -5.097015E-33   -6.183294E-31   -5.221753E-29   -3.197173E-27   -1.437242E-25
        -4.724503E-24   -1.118808E-22   -1.889137E-21   -2.324483E-20   -1.866457E-19   -9.646520E-19   -1.866415E-19   -2.324266E-20   -1.888568E-21   -1.117825E-22
        -4.714334E-24   -1.430913E-25   -3.172035E-27   -5.154623E-29   -6.058578E-31   -4.933250E-33   -2.454315E-35   -3.609154E-38    4.026176E-40    2.993864E-42
         1.090088E-44
   3     3.682062E-42    3.625537E-40   -2.863904E-38   -2.026145E-35   -4.308497E-33   -5.709353E-31   -5.322954E-29   -3.643840E-27   -1.860904E-25   -7.102023E-24
        -2.008418E-22   -4.150443E-21   -6.259318E-20   -7.110509E-19   -5.207203E-18   -2.209023E-17   -5.207103E-18   -7.109955E-19   -6.257726E-20   -4.147248E-21
        -2.004558E-22   -7.074179E-24   -1.848100E-25   -3.603974E-27   -5.235311E-29   -5.569803E-31   -4.145712E-33   -1.886954E-35   -1.994259E-38    4.030835E-40
         3.842012E-42
   4     3.040962E-40   -4.574096E-38   -2.026145E-35   -4.029058E-33   -5.403613E-31   -5.297314E-29   -3.906386E-27   -2.189952E-25   -9.340984E-24   -3.012918E-22
        -7.268900E-21   -1.300836E-19   -1.752299E-18   -1.801077E-17   -1.268620E-16   -5.764652E-16   -1.268600E-16   -1.800972E-17   -1.751954E-18   -1.299991E-19
        -7.256571E-21   -3.002420E-22   -9.284638E-24   -2.169476E-25   -3.853334E-27   -5.195825E-29   -5.256953E-31   -3.866323E-33   -1.884998E-35   -3.584329E-38
         3.644817E-40
   5    -1.063008E-37   -2.605887E-35   -4.308497E-33   -5.403613E-31   -5.271269E-29   -4.020462E-27   -2.394231E-25   -1.107516E-23   -3.947719E-22   -1.074344E-20
        -2.222858E-19   -3.546952E-18   -4.414281E-17   -4.586774E-16   -1.074327E-15    1.840281E-14   -1.074269E-15   -4.586543E-16   -4.413732E-17   -3.545278E-18
        -2.219714E-19   -1.071080E-20   -3.926968E-22   -1.098672E-23   -2.367299E-25   -3.959194E-27   -5.163765E-29   -5.254403E-31   -4.140554E-33   -2.447722E-35
        -9.320931E-38
   6    -3.819579E-35   -5.097015E-33   -5.709353E-31   -5.297314E-29   -4.020462E-27   -2.462837E-25   -1.201865E-23   -4.614779E-22   -1.380673E-20   -3.219646E-19
        -5.983208E-18   -8.817034E-17   -9.255872E-16    1.364619E-14    6.023037E-13    6.414326E-12    6.023044E-13    1.364666E-14   -9.254741E-16   -8.814910E-17
        -5.977333E-18   -3.211708E-19   -1.374528E-20   -4.583718E-22   -1.190734E-23   -2.432952E-25   -3.957879E-27   -5.191853E-29   -5.562312E-31   -4.922499E-33
        -3.636182E-35
   7    -6.303341E-33   -6.183294E-31   -5.322954E-29   -3.906386E-27   -2.394231E-25   -1.201865E-23   -4.857074E-22   -1.561870E-20   -4.006934E-19   -8.408082E-18
        -1.383626E-16   -9.042435E-16    1.001679E-13    4.886969E-12    1.081092E-10    9.922483E-10    1.081092E-10    4.886972E-12    1.001692E-13   -9.040148E-16
        -1.382978E-16   -8.394282E-18   -3.993081E-19   -1.553372E-20   -4.820948E-22   -1.190438E-23   -2.365996E-25   -3.849819E-27   -5.228219E-29   -6.046981E-31
        -6.128522E-33
   8    -6.667979E-31   -5.221753E-29   -3.643840E-27   -2.189952E-25   -1.107516E-23   -4.614779E-22   -1.561870E-20   -4.308154E-19   -9.942064E-18   -1.770273E-16
         1.150051E-16    3.232256E-13    1.975472E-11    6.816294E-10    1.355154E-08    1.161060E-07    1.355154E-08    6.816294E-10    1.975473E-11    3.232253E-13
         1.154114E-16   -1.768932E-16   -9.920523E-18   -4.291104E-19   -1.553090E-20   -4.581848E-22   -1.097946E-23   -2.167432E-25   -3.599413E-27   -5.146139E-29
        -6.552694E-31
   9    -4.919199E-29   -3.197173E-27   -1.860904E-25   -9.340984E-24   -3.947719E-22   -1.380673E-20   -4.006934E-19   -9.942064E-18   -1.913345E-16    1.324451E-15
         6.189909E-13    4.726977E-11    2.249080E-09    6.972702E-08    1.275611E-06    1.012093E-05    1.275611E-06    6.972702E-08    2.249079E-09    4.726980E-11
         6.189872E-13    1.325015E-15   -1.911572E-16   -9.919607E-18   -3.992027E-19   -1.373897E-20   -3.924398E-22   -9.276693E-24   -1.846114E-25   -3.167847E-27
        -4.866972E-29
  10    -2.601585E-27   -1.437242E-25   -7.102023E-24   -3.012918E-22   -1.074344E-20   -3.219646E-19   -8.408082E-18   -1.770273E-16    1.324451E-15    7.632505E-13
         7.199629E-11    4.419922E-09    1.870214E-07    5.199375E-06    8.553246E-05    6.133585E-04    8.553246E-05    5.199375E-06    1.870214E-07    4.419922E-09
         7.199634E-11    7.632435E-13    1.325010E-15   -1.768810E-16   -8.392494E-18   -3.210479E-19   -1.070512E-20   -3.000428E-22   -7.068536E-24   -1.429562E-25
        -2.585790E-27
  11    -9.875170E-26   -4.724503E-24   -2.008418E-22   -7.268900E-21   -2.222858E-19   -5.983208E-18   -1.383626E-16    1.150051E-16    6.189909E-13    7.199629E-11
         5.501770E-09    2.978706E-07    1.103899E-05    2.650246E-04    3.759135E-03    2.344046E-02    3.759135E-03    2.650246E-04    1.103899E-05    2.978706E-07
         5.501770E-09    7.199634E-11    6.189855E-13    1.153987E-16   -1.382868E-16   -5.976098E-18   -2.218994E-19   -7.253585E-21   -2.003581E-22   -4.711662E-24
        -9.844842E-26
  12    -2.649893E-24   -1.118808E-22   -4.150443E-21   -1.300836E-19   -3.546952E-18   -8.817034E-17   -9.042435E-16    3.232256E-13    4.726977E-11    4.419922E-09
         2.978706E-07    1.399416E-05    4.347982E-04    8.474375E-03    9.665019E-02    0.490266        9.665019E-02    8.474375E-03    4.347982E-04    1.399416E-05
         2.978706E-07    4.419922E-09    4.726980E-11    3.232242E-13   -9.040026E-16   -8.814444E-17   -3.544834E-18   -1.299754E-19   -4.146320E-21   -1.117531E-22
        -2.646437E-24
  13    -4.957109E-23   -1.889137E-21   -6.259318E-20   -1.752299E-18   -4.414281E-17   -9.255872E-16    1.001679E-13    1.975472E-11    2.249080E-09    1.870214E-07
         1.103899E-05    4.347982E-04    1.066403E-02    0.153416         1.25145         4.60451         1.25145        0.153416        1.066403E-02    4.347982E-04
         1.103899E-05    1.870214E-07    2.249079E-09    1.975473E-11    1.001693E-13   -9.254574E-16   -4.413611E-17   -1.751864E-18   -6.257291E-20   -1.888407E-21
        -4.954871E-23
  14    -6.630695E-22   -2.324483E-20   -7.110509E-19   -1.801077E-17   -4.586774E-16    1.364619E-14    4.886969E-12    6.816294E-10    6.972702E-08    5.199375E-06
         2.650246E-04    8.474375E-03    0.153416         1.44095         7.13487         16.8346         7.13487         1.44095        0.153416        8.474375E-03
         2.650246E-04    5.199375E-06    6.972702E-08    6.816294E-10    4.886972E-12    1.364672E-14   -4.586506E-16   -1.800952E-17   -7.109846E-19   -2.324221E-20
        -6.629821E-22
  15    -6.024672E-21   -1.866457E-19   -5.207203E-18   -1.268620E-16   -1.074327E-15    6.023037E-13    1.081092E-10    1.355154E-08    1.275611E-06    8.553246E-05
         3.759135E-03    9.665019E-02     1.25145         7.13487         20.9320         29.7550         20.9320         7.13487         1.25145        9.665019E-02
         3.759135E-03    8.553246E-05    1.275611E-06    1.355154E-08    1.081092E-10    6.023045E-13   -1.074261E-15   -1.268597E-16   -5.207091E-18   -1.866410E-19
        -6.024506E-21
  16    -3.750311E-20   -9.646520E-19   -2.209023E-17   -5.764652E-16    1.840281E-14    6.414326E-12    9.922483E-10    1.161060E-07    1.012093E-05    6.133585E-04
         2.344046E-02    0.490266         4.60451         16.8346         29.7550         39.0148         29.7550         16.8346         4.60451        0.490266    
         2.344046E-02    6.133585E-04    1.012093E-05    1.161060E-07    9.922483E-10    6.414326E-12    1.840281E-14   -5.764652E-16   -2.209023E-17   -9.646521E-19
        -3.750311E-20
  17    -6.024523E-21   -1.866415E-19   -5.207103E-18   -1.268600E-16   -1.074269E-15    6.023044E-13    1.081092E-10    1.355154E-08    1.275611E-06    8.553246E-05
         3.759135E-03    9.665019E-02     1.25145         7.13487         20.9320         29.7550         20.9320         7.13487         1.25145        9.665019E-02
         3.759135E-03    8.553246E-05    1.275611E-06    1.355154E-08    1.081092E-10    6.023037E-13   -1.074327E-15   -1.268620E-16   -5.207203E-18   -1.866457E-19
        -6.024672E-21
  18    -6.629974E-22   -2.324266E-20   -7.109955E-19   -1.800972E-17   -4.586543E-16    1.364666E-14    4.886972E-12    6.816294E-10    6.972702E-08    5.199375E-06
         2.650246E-04    8.474375E-03    0.153416         1.44095         7.13487         16.8346         7.13487         1.44095        0.153416        8.474375E-03
         2.650246E-04    5.199375E-06    6.972702E-08    6.816294E-10    4.886969E-12    1.364619E-14   -4.586774E-16   -1.801077E-17   -7.110509E-19   -2.324483E-20
        -6.630695E-22
  19    -4.955377E-23   -1.888568E-21   -6.257726E-20   -1.751954E-18   -4.413732E-17   -9.254741E-16    1.001692E-13    1.975473E-11    2.249079E-09    1.870214E-07
         1.103899E-05    4.347982E-04    1.066403E-02    0.153416         1.25145         4.60451         1.25145        0.153416        1.066403E-02    4.347982E-04
         1.103899E-05    1.870214E-07    2.249080E-09    1.975472E-11    1.001679E-13   -9.255872E-16   -4.414281E-17   -1.752299E-18   -6.259318E-20   -1.889137E-21
        -4.957109E-23
  20    -2.647249E-24   -1.117825E-22   -4.147248E-21   -1.299991E-19   -3.545278E-18   -8.814910E-17   -9.040148E-16    3.232253E-13    4.726980E-11    4.419922E-09
         2.978706E-07    1.399416E-05    4.347982E-04    8.474375E-03    9.665019E-02    0.490266        9.665019E-02    8.474375E-03    4.347982E-04    1.399416E-05
         2.978706E-07    4.419922E-09    4.726977E-11    3.232256E-13   -9.042435E-16   -8.817033E-17   -3.546952E-18   -1.300836E-19   -4.150443E-21   -1.118808E-22
        -2.649893E-24
  21    -9.851312E-26   -4.714334E-24   -2.004558E-22   -7.256571E-21   -2.219714E-19   -5.977333E-18   -1.382978E-16    1.154114E-16    6.189872E-13    7.199634E-11
         5.501770E-09    2.978706E-07    1.103899E-05    2.650246E-04    3.759135E-03    2.344046E-02    3.759135E-03    2.650246E-04    1.103899E-05    2.978706E-07
         5.501770E-09    7.199629E-11    6.189909E-13    1.150051E-16   -1.383626E-16   -5.983208E-18   -2.222858E-19   -7.268900E-21   -2.008418E-22   -4.724503E-24
        -9.875170E-26
  22    -2.588665E-27   -1.430913E-25   -7.074179E-24   -3.002420E-22   -1.071080E-20   -3.211708E-19   -8.394282E-18   -1.768932E-16    1.325015E-15    7.632435E-13
         7.199634E-11    4.419922E-09    1.870214E-07    5.199375E-06    8.553246E-05    6.133585E-04    8.553246E-05    5.199375E-06    1.870214E-07    4.419922E-09
         7.199629E-11    7.632505E-13    1.324451E-15   -1.770273E-16   -8.408082E-18   -3.219646E-19   -1.074344E-20   -3.012918E-22   -7.102023E-24   -1.437242E-25
        -2.601585E-27
  23    -4.874801E-29   -3.172035E-27   -1.848100E-25   -9.284638E-24   -3.926968E-22   -1.374528E-20   -3.993081E-19   -9.920523E-18   -1.911572E-16    1.325010E-15
         6.189855E-13    4.726980E-11    2.249079E-09    6.972702E-08    1.275611E-06    1.012093E-05    1.275611E-06    6.972702E-08    2.249080E-09    4.726977E-11
         6.189909E-13    1.324451E-15   -1.913345E-16   -9.942064E-18   -4.006934E-19   -1.380673E-20   -3.947719E-22   -9.340984E-24   -1.860904E-25   -3.197173E-27
        -4.919199E-29
  24    -6.566532E-31   -5.154623E-29   -3.603974E-27   -2.169476E-25   -1.098672E-23   -4.583718E-22   -1.553372E-20   -4.291104E-19   -9.919607E-18   -1.768810E-16
         1.153987E-16    3.232242E-13    1.975473E-11    6.816294E-10    1.355154E-08    1.161060E-07    1.355154E-08    6.816294E-10    1.975472E-11    3.232256E-13
         1.150051E-16   -1.770273E-16   -9.942064E-18   -4.308154E-19   -1.561870E-20   -4.614779E-22   -1.107516E-23   -2.189952E-25   -3.643840E-27   -5.221753E-29
        -6.667979E-31
  25    -6.144863E-33   -6.058578E-31   -5.235311E-29   -3.853334E-27   -2.367299E-25   -1.190734E-23   -4.820948E-22   -1.553090E-20   -3.992027E-19   -8.392494E-18
        -1.382868E-16   -9.040026E-16    1.001693E-13    4.886972E-12    1.081092E-10    9.922483E-10    1.081092E-10    4.886969E-12    1.001679E-13   -9.042435E-16
        -1.383626E-16   -8.408082E-18   -4.006934E-19   -1.561870E-20   -4.857074E-22   -1.201865E-23   -2.394231E-25   -3.906386E-27   -5.322954E-29   -6.183294E-31
        -6.303341E-33
  26    -3.649105E-35   -4.933250E-33   -5.569803E-31   -5.195825E-29   -3.959194E-27   -2.432952E-25   -1.190438E-23   -4.581848E-22   -1.373897E-20   -3.210479E-19
        -5.976098E-18   -8.814444E-17   -9.254574E-16    1.364672E-14    6.023045E-13    6.414326E-12    6.023037E-13    1.364619E-14   -9.255872E-16   -8.817033E-17
        -5.983208E-18   -3.219646E-19   -1.380673E-20   -4.614779E-22   -1.201865E-23   -2.462837E-25   -4.020462E-27   -5.297314E-29   -5.709353E-31   -5.097015E-33
        -3.819579E-35
  27    -9.387659E-38   -2.454315E-35   -4.145712E-33   -5.256953E-31   -5.163765E-29   -3.957879E-27   -2.365996E-25   -1.097946E-23   -3.924398E-22   -1.070512E-20
        -2.218994E-19   -3.544834E-18   -4.413611E-17   -4.586506E-16   -1.074261E-15    1.840281E-14   -1.074327E-15   -4.586774E-16   -4.414281E-17   -3.546952E-18
        -2.222858E-19   -1.074344E-20   -3.947719E-22   -1.107516E-23   -2.394231E-25   -4.020462E-27   -5.271269E-29   -5.403613E-31   -4.308497E-33   -2.605887E-35
        -1.063008E-37
  28     3.623714E-40   -3.609154E-38   -1.886954E-35   -3.866323E-33   -5.254403E-31   -5.191853E-29   -3.849819E-27   -2.167432E-25   -9.276693E-24   -3.000428E-22
        -7.253585E-21   -1.299754E-19   -1.751864E-18   -1.800952E-17   -1.268597E-16   -5.764652E-16   -1.268620E-16   -1.801077E-17   -1.752299E-18   -1.300836E-19
        -7.268900E-21   -3.012918E-22   -9.340984E-24   -2.189952E-25   -3.906386E-27   -5.297314E-29   -5.403613E-31   -4.029058E-33   -2.026145E-35   -4.574096E-38
         3.040962E-40
  29     3.838428E-42    4.026176E-40   -1.994259E-38   -1.884998E-35   -4.140554E-33   -5.562312E-31   -5.228219E-29   -3.599413E-27   -1.846114E-25   -7.068536E-24
        -2.003581E-22   -4.146320E-21   -6.257291E-20   -7.109846E-19   -5.207091E-18   -2.209023E-17   -5.207203E-18   -7.110509E-19   -6.259318E-20   -4.150443E-21
        -2.008418E-22   -7.102023E-24   -1.860904E-25   -3.643840E-27   -5.322954E-29   -5.709353E-31   -4.308497E-33   -2.026145E-35   -2.863904E-38    3.625537E-40
         3.682062E-42
  30     1.089850E-44    2.993864E-42    4.030835E-40   -3.584329E-38   -2.447722E-35   -4.922499E-33   -6.046981E-31   -5.146139E-29   -3.167847E-27   -1.429562E-25
        -4.711662E-24   -1.117531E-22   -1.888407E-21   -2.324221E-20   -1.866410E-19   -9.646521E-19   -1.866457E-19   -2.324483E-20   -1.889137E-21   -1.118808E-22
        -4.724503E-24   -1.437242E-25   -3.197173E-27   -5.221753E-29   -6.183294E-31   -5.097015E-33   -2.605887E-35   -4.574096E-38    3.625537E-40    2.893327E-42
         1.071973E-44
  31      0.00000        1.090088E-44    3.842012E-42    3.644817E-40   -9.320931E-38   -3.636182E-35   -6.128522E-33   -6.552694E-31   -4.866972E-29   -2.585790E-27
        -9.844842E-26   -2.646437E-24   -4.954871E-23   -6.629821E-22   -6.024506E-21   -3.750311E-20   -6.024672E-21   -6.630695E-22   -4.957109E-23   -2.649893E-24
        -9.875170E-26   -2.601585E-27   -4.919199E-29   -6.667979E-31   -6.303341E-33   -3.819579E-35   -1.063008E-37    3.040962E-40    3.682062E-42    1.071973E-44
          0.00000    

 CONCENTRATION WILL BE SAVED ON UNIT 1030 AT END OF TIME STEP   36, STRESS PERIOD    2


  MASS BUDGET FOR ENTIRE MODEL AT END OF TIME STEP   36, STRESS PERIOD   2
  ---------------------------------------------------------------------------------------------------

     CUMULATIVE MASS      M       RATES FOR THIS TIME STEP      M/T          PACKAGE NAME    
     ------------------                 ------------------------                     ----------------

           IN:                                      IN:
           ---                                      ---
     STORAGE-AQUEOUS =  5594664217.5445       STORAGE-AQUEOUS =     3371273.1938     MST                              
                 WEL =  7884000000.0000                   WEL =           0.0000     SSM_WEL-1                        
                 CHD =           0.0000                   CHD =           0.0000     SSM_CHD-1                        

            TOTAL IN = 13478664217.5445              TOTAL IN =     3371273.1938

          OUT:                                     OUT:
          ----                                     ----
     STORAGE-AQUEOUS =  7888622825.6177       STORAGE-AQUEOUS =         397.4985     MST                              
                 WEL =  5590041391.9269                   WEL =     3370875.6953     SSM_WEL-1                        
                 CHD =       7.5562E-18                   CHD =           0.0000     SSM_CHD-1                        

           TOTAL OUT = 13478664217.5446             TOTAL OUT =     3371273.1938

            IN - OUT =      -6.1035E-05              IN - OUT =      -8.9873E-08

 PERCENT DISCREPANCY =          -0.00     PERCENT DISCREPANCY =          -0.00




         TIME SUMMARY AT END OF TIME STEP   36 IN STRESS PERIOD    2
                    SECONDS     MINUTES      HOURS       DAYS        YEARS
                    -----------------------------------------------------------
   TIME STEP LENGTH 2.16991E+06  36165.      602.75      25.115     6.87602E-02
 STRESS PERIOD TIME 7.81167E+07 1.30194E+06  21699.      904.13      2.4754    
         TOTAL TIME 1.56957E+08 2.61594E+06  43599.      1816.6      4.9737    


end timestep


start timestep kper="2" kstp="37" mode="normal"

 UBDSV1 SAVING  STORAGE-AQUEOUS ON UNIT   1029 AT TIME STEP     37, STRESS PERIOD      2
 UBDSV1 SAVING     FLOW-JA-FACE ON UNIT   1029 AT TIME STEP     37, STRESS PERIOD      2
 UBDSV06 SAVING  SOURCE-SINK MIX IN MODEL GWT_P06-MF6      PACKAGE GWT_P06-MF6     CONNECTED TO MODEL GWT_P06-MF6      PACKAGE SSM              ON UNIT   1029 AT TIME STEP     37, STRESS PERIOD      2
1
  CONCENTRATION IN LAYER   1 AT END OF TIME STEP  37 IN STRESS PERIOD    2
  ---------------------------------------------------------------------------

                1               2               3               4               5               6               7               8               9              10
               11              12              13              14              15              16              17              18              19              20
               21              22              23              24              25              26              27              28              29              30
               31
 ................................................................................................................................................................................................................................................................................................................................................................................................................................................................................................................
   1      0.00000        1.114918E-44    3.749383E-42    2.734758E-40   -1.213710E-37   -4.135608E-35   -6.712354E-33   -7.028498E-31   -5.143816E-29   -2.701537E-27
        -1.019126E-25   -2.720321E-24   -5.068638E-23   -6.756257E-22   -6.115923E-21   -3.781954E-20   -6.115772E-21   -6.755527E-22   -5.066881E-23   -2.717632E-24
        -1.016690E-25   -2.688284E-27   -5.098029E-29   -6.923283E-31   -6.547007E-33   -3.956624E-35   -1.082375E-37    3.355706E-40    3.917856E-42    1.134594E-44
          0.00000    
   2     1.114918E-44    2.952233E-42    3.499265E-40   -5.463947E-38   -2.825677E-35   -5.424227E-33   -6.514354E-31   -5.460219E-29   -3.321670E-27   -1.484426E-25
        -4.853177E-24   -1.143846E-22   -1.924400E-21   -2.360144E-20   -1.889602E-19   -9.709341E-19   -1.889560E-19   -2.359924E-20   -1.923825E-21   -1.142850E-22
        -4.842831E-24   -1.477958E-25   -3.295858E-27   -5.390947E-29   -6.385010E-31   -5.253519E-33   -2.666846E-35   -4.446930E-38    3.924644E-40    3.060282E-42
         1.134859E-44
   3     3.749383E-42    3.499265E-40   -3.574584E-38   -2.199979E-35   -4.581723E-33   -6.010166E-31   -5.563357E-29   -3.785435E-27   -1.922539E-25   -7.299024E-24
        -2.054131E-22   -4.227335E-21   -6.355999E-20   -7.195904E-19   -5.258076E-18   -2.215884E-17   -5.257976E-18   -7.195347E-19   -6.354395E-20   -4.224108E-21
        -2.050218E-22   -7.270673E-24   -1.909442E-25   -3.744476E-27   -5.472905E-29   -5.865498E-31   -4.412208E-33   -2.054331E-35   -2.659195E-38    3.929651E-40
         3.921771E-42
   4     2.734758E-40   -5.463947E-38   -2.199979E-35   -4.283140E-33   -5.684805E-31   -5.533442E-29   -4.056769E-27   -2.262297E-25   -9.601724E-24   -3.082573E-22
        -7.406343E-21   -1.321412E-19   -1.775878E-18   -1.812804E-17   -1.260113E-16   -5.572321E-16   -1.260093E-16   -1.812699E-17   -1.775531E-18   -1.320562E-19
        -7.393890E-21   -3.071924E-22   -9.544315E-24   -2.241343E-25   -4.002248E-27   -5.428709E-29   -5.532824E-31   -4.113747E-33   -2.052270E-35   -4.420531E-38
         3.378443E-40
   5    -1.213710E-37   -2.825677E-35   -4.581723E-33   -5.684805E-31   -5.504896E-29   -4.174061E-27   -2.472857E-25   -1.138403E-23   -4.039737E-22   -1.095141E-20
        -2.259631E-19   -3.597016E-18   -4.431063E-17   -4.433659E-16   -5.836797E-16    2.298910E-14   -5.836216E-16   -4.433426E-16   -4.430513E-17   -3.595339E-18
        -2.256469E-19   -1.091844E-20   -4.018677E-22   -1.129388E-23   -2.445289E-25   -4.111091E-27   -5.393960E-29   -5.530171E-31   -4.406810E-33   -2.659892E-35
        -1.075262E-37
   6    -4.135608E-35   -5.424227E-33   -6.010166E-31   -5.533442E-29   -4.174061E-27   -2.543490E-25   -1.235307E-23   -4.722644E-22   -1.407812E-20   -3.274693E-19
        -6.066513E-18   -8.774155E-17   -8.236581E-16    1.778492E-14    6.845514E-13    7.109186E-12    6.845521E-13    1.778539E-14   -8.235448E-16   -8.772041E-17
        -6.060636E-18   -3.266709E-19   -1.401602E-20   -4.691110E-22   -1.223959E-23   -2.512895E-25   -4.109737E-27   -5.424596E-29   -5.857702E-31   -5.242256E-33
        -3.942971E-35
   7    -6.712354E-33   -6.514354E-31   -5.563357E-29   -4.056769E-27   -2.472857E-25   -1.235307E-23   -4.970656E-22   -1.592778E-20   -4.076493E-19   -8.519179E-18
        -1.365737E-16   -5.497144E-16    1.186157E-13    5.467828E-12    1.187653E-10    1.075677E-09    1.187653E-10    5.467830E-12    1.186171E-13   -5.494869E-16
        -1.365092E-16   -8.505382E-18   -4.062561E-19   -1.584188E-20   -4.933975E-22   -1.223657E-23   -2.443953E-25   -3.998627E-27   -5.465564E-29   -6.372939E-31
        -6.529879E-33
   8    -7.028498E-31   -5.460219E-29   -3.785435E-27   -2.262297E-25   -1.138403E-23   -4.722644E-22   -1.592778E-20   -4.383242E-19   -1.006745E-17   -1.730648E-16
         8.794649E-16    3.735071E-13    2.195472E-11    7.446289E-10    1.460078E-08    1.235117E-07    1.460078E-08    7.446289E-10    2.195472E-11    3.735069E-13
         8.798620E-16   -1.729314E-16   -1.004592E-17   -4.366093E-19   -1.583903E-20   -4.689210E-22   -1.128647E-23   -2.239248E-25   -3.739781E-27   -5.382170E-29
        -6.908885E-31
   9    -5.143816E-29   -3.321670E-27   -1.922539E-25   -9.601724E-24   -4.039737E-22   -1.407812E-20   -4.076493E-19   -1.006745E-17   -1.861739E-16    2.427878E-15
         7.086685E-13    5.233775E-11    2.446959E-09    7.471939E-08    1.347971E-06    1.055709E-05    1.347971E-06    7.471939E-08    2.446959E-09    5.233778E-11
         7.086650E-13    2.428426E-15   -1.859975E-16   -1.004500E-17   -4.061500E-19   -1.400964E-20   -4.016068E-22   -9.536213E-24   -1.907409E-25   -3.291551E-27
        -5.089940E-29
  10    -2.701537E-27   -1.484426E-25   -7.299024E-24   -3.082573E-22   -1.095141E-20   -3.274693E-19   -8.519179E-18   -1.730648E-16    2.427878E-15    8.716123E-13
         7.957584E-11    4.796495E-09    1.995993E-07    5.462242E-06    8.857600E-05    6.269661E-04    8.857600E-05    5.462242E-06    1.995993E-07    4.796495E-09
         7.957589E-11    8.716055E-13    2.428420E-15   -1.729193E-16   -8.503596E-18   -3.265474E-19   -1.091270E-20   -3.069902E-22   -7.264924E-24   -1.476576E-25
        -2.685331E-27
  11    -1.019126E-25   -4.853177E-24   -2.054131E-22   -7.406343E-21   -2.259631E-19   -6.066513E-18   -1.365737E-16    8.794649E-16    7.086685E-13    7.957584E-11
         5.965290E-09    3.172086E-07    1.155032E-05    2.727630E-04    3.813148E-03    2.347752E-02    3.813148E-03    2.727630E-04    1.155032E-05    3.172086E-07
         5.965290E-09    7.957589E-11    7.086633E-13    8.798477E-16   -1.364983E-16   -6.059403E-18   -2.255746E-19   -7.390875E-21   -2.049227E-22   -4.840113E-24
        -1.016030E-25
  12    -2.720321E-24   -1.143846E-22   -4.227335E-21   -1.321412E-19   -3.597016E-18   -8.774155E-17   -5.497144E-16    3.735071E-13    5.233775E-11    4.796495E-09
         3.172086E-07    1.462117E-05    4.458665E-04    8.542661E-03    9.605511E-02    0.481687        9.605511E-02    8.542661E-03    4.458665E-04    1.462117E-05
         3.172086E-07    4.796495E-09    5.233778E-11    3.735057E-13   -5.494755E-16   -8.771579E-17   -3.594895E-18   -1.320323E-19   -4.223171E-21   -1.142553E-22
        -2.716807E-24
  13    -5.068638E-23   -1.924400E-21   -6.355999E-20   -1.775878E-18   -4.431063E-17   -8.236581E-16    1.186157E-13    2.195472E-11    2.446959E-09    1.995993E-07
         1.155032E-05    4.458665E-04    1.072352E-02    0.151634         1.22142         4.45812         1.22142        0.151634        1.072352E-02    4.458665E-04
         1.155032E-05    1.995993E-07    2.446959E-09    2.195472E-11    1.186171E-13   -8.235282E-16   -4.430392E-17   -1.775441E-18   -6.353957E-20   -1.923663E-21
        -5.066368E-23
  14    -6.756257E-22   -2.360144E-20   -7.195904E-19   -1.812804E-17   -4.433659E-16    1.778492E-14    5.467828E-12    7.446289E-10    7.471939E-08    5.462242E-06
         2.727630E-04    8.542661E-03    0.151634         1.40195         6.88595         16.2116         6.88595         1.40195        0.151634        8.542661E-03
         2.727630E-04    5.462242E-06    7.471939E-08    7.446289E-10    5.467831E-12    1.778545E-14   -4.433389E-16   -1.812679E-17   -7.195238E-19   -2.359879E-20
        -6.755373E-22
  15    -6.115923E-21   -1.889602E-19   -5.258076E-18   -1.260113E-16   -5.836797E-16    6.845514E-13    1.187653E-10    1.460078E-08    1.347971E-06    8.857600E-05
         3.813148E-03    9.605511E-02     1.22142         6.88595         20.1748         28.6526         20.1748         6.88595         1.22142        9.605511E-02
         3.813148E-03    8.857600E-05    1.347971E-06    1.460078E-08    1.187653E-10    6.845522E-13   -5.836136E-16   -1.260090E-16   -5.257964E-18   -1.889555E-19
        -6.115755E-21
  16    -3.781954E-20   -9.709341E-19   -2.215884E-17   -5.572321E-16    2.298910E-14    7.109186E-12    1.075677E-09    1.235117E-07    1.055709E-05    6.269661E-04
         2.347752E-02    0.481687         4.45812         16.2116         28.6526         37.5859         28.6526         16.2116         4.45812        0.481687    
         2.347752E-02    6.269661E-04    1.055709E-05    1.235117E-07    1.075677E-09    7.109186E-12    2.298910E-14   -5.572321E-16   -2.215884E-17   -9.709341E-19
        -3.781954E-20
  17    -6.115772E-21   -1.889560E-19   -5.257976E-18   -1.260093E-16   -5.836216E-16    6.845521E-13    1.187653E-10    1.460078E-08    1.347971E-06    8.857600E-05
         3.813148E-03    9.605511E-02     1.22142         6.88595         20.1748         28.6526         20.1748         6.88595         1.22142        9.605511E-02
         3.813148E-03    8.857600E-05    1.347971E-06    1.460078E-08    1.187653E-10    6.845514E-13   -5.836796E-16   -1.260113E-16   -5.258076E-18   -1.889602E-19
        -6.115923E-21
  18    -6.755527E-22   -2.359924E-20   -7.195347E-19   -1.812699E-17   -4.433426E-16    1.778539E-14    5.467830E-12    7.446289E-10    7.471939E-08    5.462242E-06
         2.727630E-04    8.542661E-03    0.151634         1.40195         6.88595         16.2116         6.88595         1.40195        0.151634        8.542661E-03
         2.727630E-04    5.462242E-06    7.471939E-08    7.446289E-10    5.467828E-12    1.778493E-14   -4.433659E-16   -1.812804E-17   -7.195904E-19   -2.360143E-20
        -6.756257E-22
  19    -5.066881E-23   -1.923825E-21   -6.354395E-20   -1.775531E-18   -4.430513E-17   -8.235448E-16    1.186171E-13    2.195472E-11    2.446959E-09    1.995993E-07
         1.155032E-05    4.458665E-04    1.072352E-02    0.151634         1.22142         4.45812         1.22142        0.151634        1.072352E-02    4.458665E-04
         1.155032E-05    1.995993E-07    2.446959E-09    2.195472E-11    1.186157E-13   -8.236581E-16   -4.431063E-17   -1.775878E-18   -6.355999E-20   -1.924400E-21
        -5.068638E-23
  20    -2.717632E-24   -1.142850E-22   -4.224108E-21   -1.320562E-19   -3.595339E-18   -8.772041E-17   -5.494869E-16    3.735069E-13    5.233778E-11    4.796495E-09
         3.172086E-07    1.462117E-05    4.458665E-04    8.542661E-03    9.605511E-02    0.481687        9.605511E-02    8.542661E-03    4.458665E-04    1.462117E-05
         3.172086E-07    4.796495E-09    5.233775E-11    3.735071E-13   -5.497144E-16   -8.774155E-17   -3.597016E-18   -1.321412E-19   -4.227335E-21   -1.143846E-22
        -2.720321E-24
  21    -1.016690E-25   -4.842831E-24   -2.050218E-22   -7.393890E-21   -2.256469E-19   -6.060636E-18   -1.365092E-16    8.798620E-16    7.086650E-13    7.957589E-11
         5.965290E-09    3.172086E-07    1.155032E-05    2.727630E-04    3.813148E-03    2.347752E-02    3.813148E-03    2.727630E-04    1.155032E-05    3.172086E-07
         5.965290E-09    7.957584E-11    7.086685E-13    8.794649E-16   -1.365737E-16   -6.066513E-18   -2.259631E-19   -7.406343E-21   -2.054131E-22   -4.853177E-24
        -1.019126E-25
  22    -2.688284E-27   -1.477958E-25   -7.270673E-24   -3.071924E-22   -1.091844E-20   -3.266709E-19   -8.505382E-18   -1.729314E-16    2.428426E-15    8.716055E-13
         7.957589E-11    4.796495E-09    1.995993E-07    5.462242E-06    8.857600E-05    6.269661E-04    8.857600E-05    5.462242E-06    1.995993E-07    4.796495E-09
         7.957584E-11    8.716123E-13    2.427878E-15   -1.730648E-16   -8.519179E-18   -3.274693E-19   -1.095141E-20   -3.082573E-22   -7.299024E-24   -1.484426E-25
        -2.701537E-27
  23    -5.098029E-29   -3.295858E-27   -1.909442E-25   -9.544315E-24   -4.018677E-22   -1.401602E-20   -4.062561E-19   -1.004592E-17   -1.859975E-16    2.428420E-15
         7.086633E-13    5.233778E-11    2.446959E-09    7.471939E-08    1.347971E-06    1.055709E-05    1.347971E-06    7.471939E-08    2.446959E-09    5.233775E-11
         7.086685E-13    2.427878E-15   -1.861739E-16   -1.006745E-17   -4.076493E-19   -1.407812E-20   -4.039737E-22   -9.601724E-24   -1.922539E-25   -3.321670E-27
        -5.143816E-29
  24    -6.923283E-31   -5.390947E-29   -3.744476E-27   -2.241343E-25   -1.129388E-23   -4.691110E-22   -1.584188E-20   -4.366093E-19   -1.004500E-17   -1.729193E-16
         8.798477E-16    3.735057E-13    2.195472E-11    7.446289E-10    1.460078E-08    1.235117E-07    1.460078E-08    7.446289E-10    2.195472E-11    3.735071E-13
         8.794649E-16   -1.730648E-16   -1.006745E-17   -4.383242E-19   -1.592778E-20   -4.722644E-22   -1.138403E-23   -2.262297E-25   -3.785435E-27   -5.460219E-29
        -7.028498E-31
  25    -6.547007E-33   -6.385010E-31   -5.472905E-29   -4.002248E-27   -2.445289E-25   -1.223959E-23   -4.933975E-22   -1.583903E-20   -4.061500E-19   -8.503596E-18
        -1.364983E-16   -5.494755E-16    1.186171E-13    5.467831E-12    1.187653E-10    1.075677E-09    1.187653E-10    5.467828E-12    1.186157E-13   -5.497144E-16
        -1.365737E-16   -8.519179E-18   -4.076493E-19   -1.592778E-20   -4.970656E-22   -1.235307E-23   -2.472857E-25   -4.056769E-27   -5.563357E-29   -6.514354E-31
        -6.712354E-33
  26    -3.956624E-35   -5.253519E-33   -5.865498E-31   -5.428709E-29   -4.111091E-27   -2.512895E-25   -1.223657E-23   -4.689210E-22   -1.400964E-20   -3.265474E-19
        -6.059403E-18   -8.771579E-17   -8.235282E-16    1.778545E-14    6.845522E-13    7.109186E-12    6.845514E-13    1.778493E-14   -8.236581E-16   -8.774155E-17
        -6.066513E-18   -3.274693E-19   -1.407812E-20   -4.722644E-22   -1.235307E-23   -2.543490E-25   -4.174061E-27   -5.533442E-29   -6.010166E-31   -5.424227E-33
        -4.135608E-35
  27    -1.082375E-37   -2.666846E-35   -4.412208E-33   -5.532824E-31   -5.393960E-29   -4.109737E-27   -2.443953E-25   -1.128647E-23   -4.016068E-22   -1.091270E-20
        -2.255746E-19   -3.594895E-18   -4.430392E-17   -4.433389E-16   -5.836136E-16    2.298910E-14   -5.836796E-16   -4.433659E-16   -4.431063E-17   -3.597016E-18
        -2.259631E-19   -1.095141E-20   -4.039737E-22   -1.138403E-23   -2.472857E-25   -4.174061E-27   -5.504896E-29   -5.684805E-31   -4.581723E-33   -2.825677E-35
        -1.213710E-37
  28     3.355706E-40   -4.446930E-38   -2.054331E-35   -4.113747E-33   -5.530171E-31   -5.424596E-29   -3.998627E-27   -2.239248E-25   -9.536213E-24   -3.069902E-22
        -7.390875E-21   -1.320323E-19   -1.775441E-18   -1.812679E-17   -1.260090E-16   -5.572321E-16   -1.260113E-16   -1.812804E-17   -1.775878E-18   -1.321412E-19
        -7.406343E-21   -3.082573E-22   -9.601724E-24   -2.262297E-25   -4.056769E-27   -5.533442E-29   -5.684805E-31   -4.283140E-33   -2.199979E-35   -5.463947E-38
         2.734758E-40
  29     3.917856E-42    3.924644E-40   -2.659195E-38   -2.052270E-35   -4.406810E-33   -5.857702E-31   -5.465564E-29   -3.739781E-27   -1.907409E-25   -7.264924E-24
        -2.049227E-22   -4.223171E-21   -6.353957E-20   -7.195238E-19   -5.257964E-18   -2.215884E-17   -5.258076E-18   -7.195904E-19   -6.355999E-20   -4.227335E-21
        -2.054131E-22   -7.299024E-24   -1.922539E-25   -3.785435E-27   -5.563357E-29   -6.010166E-31   -4.581723E-33   -2.199979E-35   -3.574584E-38    3.499265E-40
         3.749383E-42
  30     1.134594E-44    3.060282E-42    3.929651E-40   -4.420531E-38   -2.659892E-35   -5.242256E-33   -6.372939E-31   -5.382170E-29   -3.291551E-27   -1.476576E-25
        -4.840113E-24   -1.142553E-22   -1.923663E-21   -2.359879E-20   -1.889555E-19   -9.709341E-19   -1.889602E-19   -2.360143E-20   -1.924400E-21   -1.143846E-22
        -4.853177E-24   -1.484426E-25   -3.321670E-27   -5.460219E-29   -6.514354E-31   -5.424227E-33   -2.825677E-35   -5.463947E-38    3.499265E-40    2.952233E-42
         1.114918E-44
  31      0.00000        1.134859E-44    3.921771E-42    3.378443E-40   -1.075262E-37   -3.942971E-35   -6.529879E-33   -6.908885E-31   -5.089940E-29   -2.685331E-27
        -1.016030E-25   -2.716807E-24   -5.066368E-23   -6.755373E-22   -6.115755E-21   -3.781954E-20   -6.115923E-21   -6.756257E-22   -5.068638E-23   -2.720321E-24
        -1.019126E-25   -2.701537E-27   -5.143816E-29   -7.028498E-31   -6.712354E-33   -4.135608E-35   -1.213710E-37    2.734758E-40    3.749383E-42    1.114918E-44
          0.00000    

 CONCENTRATION WILL BE SAVED ON UNIT 1030 AT END OF TIME STEP   37, STRESS PERIOD    2


  MASS BUDGET FOR ENTIRE MODEL AT END OF TIME STEP   37, STRESS PERIOD   2
  ---------------------------------------------------------------------------------------------------

     CUMULATIVE MASS      M       RATES FOR THIS TIME STEP      M/T          PACKAGE NAME    
     ------------------                 ------------------------                     ----------------

           IN:                                      IN:
           ---                                      ---
     STORAGE-AQUEOUS =  5676231260.0719       STORAGE-AQUEOUS =     3247783.6111     MST                              
                 WEL =  7884000000.0000                   WEL =           0.0000     SSM_WEL-1                        
                 CHD =           0.0000                   CHD =           0.0000     SSM_CHD-1                        

            TOTAL IN = 13560231260.0719              TOTAL IN =     3247783.6111

          OUT:                                     OUT:
          ----                                     ----
     STORAGE-AQUEOUS =  7888631927.0818       STORAGE-AQUEOUS =         362.3962     MST                              
                 WEL =  5671599332.9901                   WEL =     3247421.2149     SSM_WEL-1                        
                 CHD =       7.5562E-18                   CHD =           0.0000     SSM_CHD-1                        

           TOTAL OUT = 13560231260.0719             TOTAL OUT =     3247783.6111

            IN - OUT =      -6.4850E-05              IN - OUT =      -8.5216E-08

 PERCENT DISCREPANCY =          -0.00     PERCENT DISCREPANCY =          -0.00




         TIME SUMMARY AT END OF TIME STEP   37 IN STRESS PERIOD    2
                    SECONDS     MINUTES      HOURS       DAYS        YEARS
                    -----------------------------------------------------------
   TIME STEP LENGTH 2.16991E+06  36165.      602.75      25.115     6.87602E-02
 STRESS PERIOD TIME 8.02866E+07 1.33811E+06  22302.      929.24      2.5441    
         TOTAL TIME 1.59127E+08 2.65211E+06  44202.      1841.7      5.0424    


end timestep


start timestep kper="2" kstp="38" mode="normal"

 UBDSV1 SAVING  STORAGE-AQUEOUS ON UNIT   1029 AT TIME STEP     38, STRESS PERIOD      2
 UBDSV1 SAVING     FLOW-JA-FACE ON UNIT   1029 AT TIME STEP     38, STRESS PERIOD      2
 UBDSV06 SAVING  SOURCE-SINK MIX IN MODEL GWT_P06-MF6      PACKAGE GWT_P06-MF6     CONNECTED TO MODEL GWT_P06-MF6      PACKAGE SSM              ON UNIT   1029 AT TIME STEP     38, STRESS PERIOD      2
1
  CONCENTRATION IN LAYER   1 AT END OF TIME STEP  38 IN STRESS PERIOD    2
  ---------------------------------------------------------------------------

                1               2               3               4               5               6               7               8               9              10
               11              12              13              14              15              16              17              18              19              20
               21              22              23              24              25              26              27              28              29              30
               31
 ................................................................................................................................................................................................................................................................................................................................................................................................................................................................................................................
   1      0.00000        1.158598E-44    3.810683E-42    2.385150E-40   -1.376578E-37   -4.471595E-35   -7.142920E-33   -7.405108E-31   -5.376897E-29   -2.804632E-27
        -1.051555E-25   -2.792251E-24   -5.182121E-23   -6.883564E-22   -6.208096E-21   -3.813755E-20   -6.207944E-21   -6.882826E-22   -5.180340E-23   -2.789516E-24
        -1.049068E-25   -2.791038E-27   -5.329685E-29   -7.296008E-31   -6.970453E-33   -4.283742E-35   -1.237809E-37    3.046398E-40    3.992028E-42    1.180208E-44
          0.00000    
   2     1.158598E-44    3.008410E-42    3.350362E-40   -6.426541E-38   -3.059168E-35   -5.768460E-33   -6.860113E-31   -5.707718E-29   -3.450141E-27   -1.532854E-25
        -4.984605E-24   -1.169319E-22   -1.960161E-21   -2.396176E-20   -1.912911E-19   -9.772049E-19   -1.912869E-19   -2.395954E-20   -1.959579E-21   -1.168309E-22
        -4.974079E-24   -1.526245E-25   -3.423639E-27   -5.636248E-29   -6.725997E-31   -5.590558E-33   -2.892779E-35   -5.355023E-38    3.801785E-40    3.124431E-42
         1.180503E-44
   3     3.810683E-42    3.350362E-40   -4.343748E-38   -2.384539E-35   -4.868962E-33   -6.324185E-31   -5.812825E-29   -3.931567E-27   -1.985819E-25   -7.500305E-24
        -2.100643E-22   -4.305345E-21   -6.453803E-20   -7.281572E-19   -5.308191E-18   -2.221314E-17   -5.308090E-18   -7.281012E-19   -6.452188E-20   -4.302086E-21
        -2.096675E-22   -7.471440E-24   -1.972425E-25   -3.889490E-27   -5.719487E-29   -6.174241E-31   -4.692477E-33   -2.232173E-35   -3.380517E-38    3.807161E-40
         3.996299E-42
   4     2.385150E-40   -6.426541E-38   -2.384539E-35   -4.550170E-33   -5.978230E-31   -5.778404E-29   -4.211954E-27   -2.336579E-25   -9.868200E-24   -3.153476E-22
        -7.545871E-21   -1.342244E-19   -1.799380E-18   -1.823201E-17   -1.253500E-16   -5.348974E-16   -1.253479E-16   -1.823095E-17   -1.799031E-18   -1.341389E-19
        -7.533295E-21   -3.142675E-22   -9.809714E-24   -2.315140E-25   -4.155930E-27   -5.670340E-29   -5.820763E-31   -4.373883E-33   -2.230002E-35   -5.326963E-38
         3.070872E-40
   5    -1.376578E-37   -3.059168E-35   -4.868962E-33   -5.978230E-31   -5.747233E-29   -4.332546E-27   -2.553588E-25   -1.169974E-23   -4.133439E-22   -1.116267E-20
        -2.296847E-19   -3.646488E-18   -4.439179E-17   -4.247808E-16   -3.271975E-17    2.802149E-14   -3.266203E-17   -4.247573E-16   -4.438627E-17   -3.644808E-18
        -2.293667E-19   -1.112936E-20   -4.112068E-22   -1.160786E-23   -2.525372E-25   -4.267836E-27   -5.632771E-29   -5.818003E-31   -4.686827E-33   -2.885446E-35
        -1.230232E-37
   6    -4.471595E-35   -5.768460E-33   -6.324185E-31   -5.778404E-29   -4.332546E-27   -2.626300E-25   -1.269492E-23   -4.832508E-22   -1.435389E-20   -3.330329E-19
        -6.147427E-18   -8.737403E-17   -7.056251E-16    2.236745E-14    7.743746E-13    7.858488E-12    7.743753E-13    2.236791E-14   -7.055115E-16   -8.735287E-17
        -6.141548E-18   -3.322300E-19   -1.429113E-20   -4.800497E-22   -1.257923E-23   -2.594983E-25   -4.266441E-27   -5.666083E-29   -6.166129E-31   -5.578763E-33
        -4.269324E-35
   7    -7.142920E-33   -6.860113E-31   -5.812825E-29   -4.211954E-27   -2.553588E-25   -1.269492E-23   -5.086351E-22   -1.624190E-20   -4.146702E-19   -8.624602E-18
        -1.342055E-16   -1.450663E-16    1.389561E-13    6.099121E-12    1.301879E-10    1.163919E-09    1.301879E-10    6.099123E-12    1.389574E-13   -1.448400E-16
        -1.341411E-16   -8.610808E-18   -4.132690E-19   -1.615507E-20   -5.049111E-22   -1.257615E-23   -2.524003E-25   -4.152202E-27   -5.711891E-29   -6.713436E-31
        -6.952508E-33
   8    -7.405108E-31   -5.707718E-29   -3.931567E-27   -2.336579E-25   -1.169974E-23   -4.832508E-22   -1.624190E-20   -4.458988E-19   -1.018435E-17   -1.677582E-16
         1.738371E-15    4.287871E-13    2.433598E-11    8.117803E-10    1.570275E-08    1.311794E-07    1.570275E-08    8.117802E-10    2.433599E-11    4.287868E-13
         1.738760E-15   -1.676254E-16   -1.016282E-17   -4.441740E-19   -1.615218E-20   -4.798567E-22   -1.160030E-23   -2.312992E-25   -3.884657E-27   -5.627170E-29
        -7.281032E-31
   9    -5.376897E-29   -3.450141E-27   -1.985819E-25   -9.868200E-24   -4.133439E-22   -1.435389E-20   -4.146702E-19   -1.018435E-17   -1.794282E-16    3.665060E-15
         8.070890E-13    5.780724E-11    2.656916E-09    7.992846E-08    1.422270E-06    1.099792E-05    1.422270E-06    7.992846E-08    2.656916E-09    5.780726E-11
         8.070856E-13    3.665593E-15   -1.792527E-16   -1.016191E-17   -4.131623E-19   -1.428469E-20   -4.109419E-22   -9.801452E-24   -1.970344E-25   -3.419211E-27
        -5.321328E-29
  10    -2.804632E-27   -1.532854E-25   -7.500305E-24   -3.153476E-22   -1.116267E-20   -3.330329E-19   -8.624602E-18   -1.677582E-16    3.665060E-15    9.904671E-13
         8.774326E-11    5.194850E-09    2.126560E-07    5.730033E-06    9.161890E-05    6.402809E-04    9.161890E-05    5.730033E-06    2.126560E-07    5.194850E-09
         8.774331E-11    9.904606E-13    3.665586E-15   -1.676135E-16   -8.609024E-18   -3.321058E-19   -1.112356E-20   -3.140623E-22   -7.465584E-24   -1.524832E-25
        -2.788006E-27
  11    -1.051555E-25   -4.984605E-24   -2.100643E-22   -7.545871E-21   -2.296847E-19   -6.147427E-18   -1.342055E-16    1.738371E-15    8.070890E-13    8.774326E-11
         6.455104E-09    3.372250E-07    1.206814E-05    2.804129E-04    3.864753E-03    2.350168E-02    3.864753E-03    2.804129E-04    1.206814E-05    3.372250E-07
         6.455104E-09    8.774331E-11    8.070840E-13    1.738744E-15   -1.341303E-16   -6.140316E-18   -2.292940E-19   -7.530251E-21   -2.095671E-22   -4.971313E-24
        -1.048393E-25
  12    -2.792251E-24   -1.169319E-22   -4.305345E-21   -1.342244E-19   -3.646488E-18   -8.737403E-17   -1.450663E-16    4.287871E-13    5.780724E-11    5.194850E-09
         3.372250E-07    1.525468E-05    4.567184E-04    8.605017E-03    9.542161E-02    0.473174        9.542161E-02    8.605017E-03    4.567184E-04    1.525468E-05
         3.372250E-07    5.194850E-09    5.780727E-11    4.287857E-13   -1.448294E-16   -8.734828E-17   -3.644364E-18   -1.341150E-19   -4.301140E-21   -1.168008E-22
        -2.788677E-24
  13    -5.182121E-23   -1.960161E-21   -6.453803E-20   -1.799380E-18   -4.439179E-17   -7.056251E-16    1.389561E-13    2.433598E-11    2.656916E-09    2.126560E-07
         1.206814E-05    4.567184E-04    1.077547E-02    0.149816         1.19201         4.31672         1.19201        0.149816        1.077547E-02    4.567184E-04
         1.206814E-05    2.126560E-07    2.656916E-09    2.433599E-11    1.389574E-13   -7.054950E-16   -4.438506E-17   -1.798942E-18   -6.451748E-20   -1.959415E-21
        -5.179821E-23
  14    -6.883564E-22   -2.396176E-20   -7.281572E-19   -1.823201E-17   -4.247808E-16    2.236745E-14    6.099121E-12    8.117803E-10    7.992846E-08    5.730033E-06
         2.804129E-04    8.605017E-03    0.149816         1.36396         6.64649         15.6130         6.64649         1.36396        0.149816        8.605017E-03
         2.804129E-04    5.730033E-06    7.992846E-08    8.117802E-10    6.099124E-12    2.236797E-14   -4.247536E-16   -1.823076E-17   -7.280902E-19   -2.395909E-20
        -6.882669E-22
  15    -6.208096E-21   -1.912911E-19   -5.308191E-18   -1.253500E-16   -3.271975E-17    7.743746E-13    1.301879E-10    1.570275E-08    1.422270E-06    9.161890E-05
         3.864753E-03    9.542161E-02     1.19201         6.64649         19.4456         27.5913         19.4456         6.64649         1.19201        9.542161E-02
         3.864753E-03    9.161890E-05    1.422270E-06    1.570275E-08    1.301879E-10    7.743754E-13   -3.265400E-17   -1.253476E-16   -5.308078E-18   -1.912863E-19
        -6.207926E-21
  16    -3.813755E-20   -9.772049E-19   -2.221314E-17   -5.348974E-16    2.802149E-14    7.858488E-12    1.163919E-09    1.311794E-07    1.099792E-05    6.402809E-04
         2.350168E-02    0.473174         4.31672         15.6130         27.5913         36.2066         27.5913         15.6130         4.31672        0.473174    
         2.350168E-02    6.402809E-04    1.099792E-05    1.311794E-07    1.163919E-09    7.858488E-12    2.802149E-14   -5.348975E-16   -2.221314E-17   -9.772049E-19
        -3.813755E-20
  17    -6.207944E-21   -1.912869E-19   -5.308090E-18   -1.253479E-16   -3.266203E-17    7.743753E-13    1.301879E-10    1.570275E-08    1.422270E-06    9.161890E-05
         3.864753E-03    9.542161E-02     1.19201         6.64649         19.4456         27.5913         19.4456         6.64649         1.19201        9.542161E-02
         3.864753E-03    9.161890E-05    1.422270E-06    1.570275E-08    1.301879E-10    7.743746E-13   -3.271959E-17   -1.253500E-16   -5.308191E-18   -1.912911E-19
        -6.208096E-21
  18    -6.882826E-22   -2.395954E-20   -7.281012E-19   -1.823095E-17   -4.247573E-16    2.236791E-14    6.099123E-12    8.117802E-10    7.992846E-08    5.730033E-06
         2.804129E-04    8.605017E-03    0.149816         1.36396         6.64649         15.6130         6.64649         1.36396        0.149816        8.605017E-03
         2.804129E-04    5.730033E-06    7.992846E-08    8.117803E-10    6.099121E-12    2.236745E-14   -4.247808E-16   -1.823201E-17   -7.281572E-19   -2.396176E-20
        -6.883564E-22
  19    -5.180340E-23   -1.959579E-21   -6.452188E-20   -1.799031E-18   -4.438627E-17   -7.055115E-16    1.389574E-13    2.433599E-11    2.656916E-09    2.126560E-07
         1.206814E-05    4.567184E-04    1.077547E-02    0.149816         1.19201         4.31672         1.19201        0.149816        1.077547E-02    4.567184E-04
         1.206814E-05    2.126560E-07    2.656916E-09    2.433598E-11    1.389561E-13   -7.056251E-16   -4.439178E-17   -1.799380E-18   -6.453803E-20   -1.960161E-21
        -5.182121E-23
  20    -2.789516E-24   -1.168309E-22   -4.302086E-21   -1.341389E-19   -3.644808E-18   -8.735287E-17   -1.448400E-16    4.287868E-13    5.780726E-11    5.194850E-09
         3.372250E-07    1.525468E-05    4.567184E-04    8.605017E-03    9.542161E-02    0.473174        9.542161E-02    8.605017E-03    4.567184E-04    1.525468E-05
         3.372250E-07    5.194850E-09    5.780724E-11    4.287871E-13   -1.450662E-16   -8.737403E-17   -3.646487E-18   -1.342244E-19   -4.305345E-21   -1.169319E-22
        -2.792250E-24
  21    -1.049068E-25   -4.974079E-24   -2.096675E-22   -7.533295E-21   -2.293667E-19   -6.141548E-18   -1.341411E-16    1.738760E-15    8.070856E-13    8.774331E-11
         6.455104E-09    3.372250E-07    1.206814E-05    2.804129E-04    3.864753E-03    2.350168E-02    3.864753E-03    2.804129E-04    1.206814E-05    3.372250E-07
         6.455104E-09    8.774326E-11    8.070890E-13    1.738372E-15   -1.342055E-16   -6.147427E-18   -2.296847E-19   -7.545871E-21   -2.100643E-22   -4.984605E-24
        -1.051555E-25
  22    -2.791038E-27   -1.526245E-25   -7.471440E-24   -3.142675E-22   -1.112936E-20   -3.322300E-19   -8.610808E-18   -1.676254E-16    3.665593E-15    9.904606E-13
         8.774331E-11    5.194850E-09    2.126560E-07    5.730033E-06    9.161890E-05    6.402809E-04    9.161890E-05    5.730033E-06    2.126560E-07    5.194850E-09
         8.774326E-11    9.904671E-13    3.665060E-15   -1.677582E-16   -8.624602E-18   -3.330329E-19   -1.116267E-20   -3.153476E-22   -7.500305E-24   -1.532854E-25
        -2.804632E-27
  23    -5.329685E-29   -3.423639E-27   -1.972425E-25   -9.809714E-24   -4.112068E-22   -1.429113E-20   -4.132690E-19   -1.016282E-17   -1.792527E-16    3.665586E-15
         8.070840E-13    5.780727E-11    2.656916E-09    7.992846E-08    1.422270E-06    1.099792E-05    1.422270E-06    7.992846E-08    2.656916E-09    5.780724E-11
         8.070890E-13    3.665060E-15   -1.794282E-16   -1.018435E-17   -4.146702E-19   -1.435389E-20   -4.133439E-22   -9.868200E-24   -1.985819E-25   -3.450141E-27
        -5.376897E-29
  24    -7.296008E-31   -5.636248E-29   -3.889490E-27   -2.315140E-25   -1.160786E-23   -4.800497E-22   -1.615507E-20   -4.441740E-19   -1.016191E-17   -1.676135E-16
         1.738744E-15    4.287857E-13    2.433599E-11    8.117802E-10    1.570275E-08    1.311794E-07    1.570275E-08    8.117803E-10    2.433598E-11    4.287871E-13
         1.738372E-15   -1.677582E-16   -1.018435E-17   -4.458988E-19   -1.624190E-20   -4.832508E-22   -1.169974E-23   -2.336579E-25   -3.931567E-27   -5.707718E-29
        -7.405108E-31
  25    -6.970453E-33   -6.725997E-31   -5.719487E-29   -4.155930E-27   -2.525372E-25   -1.257923E-23   -5.049111E-22   -1.615218E-20   -4.131623E-19   -8.609024E-18
        -1.341303E-16   -1.448294E-16    1.389574E-13    6.099124E-12    1.301879E-10    1.163919E-09    1.301879E-10    6.099121E-12    1.389561E-13   -1.450662E-16
        -1.342055E-16   -8.624602E-18   -4.146702E-19   -1.624190E-20   -5.086351E-22   -1.269492E-23   -2.553588E-25   -4.211954E-27   -5.812825E-29   -6.860113E-31
        -7.142920E-33
  26    -4.283742E-35   -5.590558E-33   -6.174241E-31   -5.670340E-29   -4.267836E-27   -2.594983E-25   -1.257615E-23   -4.798567E-22   -1.428469E-20   -3.321058E-19
        -6.140316E-18   -8.734828E-17   -7.054950E-16    2.236797E-14    7.743754E-13    7.858488E-12    7.743746E-13    2.236745E-14   -7.056251E-16   -8.737403E-17
        -6.147427E-18   -3.330329E-19   -1.435389E-20   -4.832508E-22   -1.269492E-23   -2.626300E-25   -4.332546E-27   -5.778404E-29   -6.324185E-31   -5.768460E-33
        -4.471595E-35
  27    -1.237809E-37   -2.892779E-35   -4.692477E-33   -5.820763E-31   -5.632771E-29   -4.266441E-27   -2.524003E-25   -1.160030E-23   -4.109419E-22   -1.112356E-20
        -2.292940E-19   -3.644364E-18   -4.438506E-17   -4.247536E-16   -3.265400E-17    2.802149E-14   -3.271959E-17   -4.247808E-16   -4.439178E-17   -3.646487E-18
        -2.296847E-19   -1.116267E-20   -4.133439E-22   -1.169974E-23   -2.553588E-25   -4.332546E-27   -5.747233E-29   -5.978230E-31   -4.868962E-33   -3.059168E-35
        -1.376578E-37
  28     3.046398E-40   -5.355023E-38   -2.232173E-35   -4.373883E-33   -5.818003E-31   -5.666083E-29   -4.152202E-27   -2.312992E-25   -9.801452E-24   -3.140623E-22
        -7.530251E-21   -1.341150E-19   -1.798942E-18   -1.823076E-17   -1.253476E-16   -5.348975E-16   -1.253500E-16   -1.823201E-17   -1.799380E-18   -1.342244E-19
        -7.545871E-21   -3.153476E-22   -9.868200E-24   -2.336579E-25   -4.211954E-27   -5.778404E-29   -5.978230E-31   -4.550170E-33   -2.384539E-35   -6.426540E-38
         2.385150E-40
  29     3.992028E-42    3.801785E-40   -3.380517E-38   -2.230002E-35   -4.686827E-33   -6.166129E-31   -5.711891E-29   -3.884657E-27   -1.970344E-25   -7.465584E-24
        -2.095671E-22   -4.301140E-21   -6.451748E-20   -7.280902E-19   -5.308078E-18   -2.221314E-17   -5.308191E-18   -7.281572E-19   -6.453803E-20   -4.305345E-21
        -2.100643E-22   -7.500305E-24   -1.985819E-25   -3.931567E-27   -5.812825E-29   -6.324185E-31   -4.868962E-33   -2.384539E-35   -4.343748E-38    3.350362E-40
         3.810683E-42
  30     1.180208E-44    3.124431E-42    3.807161E-40   -5.326963E-38   -2.885446E-35   -5.578763E-33   -6.713436E-31   -5.627170E-29   -3.419211E-27   -1.524832E-25
        -4.971313E-24   -1.168008E-22   -1.959415E-21   -2.395909E-20   -1.912863E-19   -9.772049E-19   -1.912911E-19   -2.396176E-20   -1.960161E-21   -1.169319E-22
        -4.984605E-24   -1.532854E-25   -3.450141E-27   -5.707718E-29   -6.860113E-31   -5.768460E-33   -3.059168E-35   -6.426540E-38    3.350362E-40    3.008410E-42
         1.158598E-44
  31      0.00000        1.180503E-44    3.996299E-42    3.070872E-40   -1.230232E-37   -4.269324E-35   -6.952508E-33   -7.281032E-31   -5.321328E-29   -2.788006E-27
        -1.048393E-25   -2.788677E-24   -5.179821E-23   -6.882669E-22   -6.207926E-21   -3.813755E-20   -6.208096E-21   -6.883564E-22   -5.182121E-23   -2.792250E-24
        -1.051555E-25   -2.804632E-27   -5.376897E-29   -7.405108E-31   -7.142920E-33   -4.471595E-35   -1.376578E-37    2.385150E-40    3.810683E-42    1.158598E-44
          0.00000    

 CONCENTRATION WILL BE SAVED ON UNIT 1030 AT END OF TIME STEP   38, STRESS PERIOD    2


  MASS BUDGET FOR ENTIRE MODEL AT END OF TIME STEP   38, STRESS PERIOD   2
  ---------------------------------------------------------------------------------------------------

     CUMULATIVE MASS      M       RATES FOR THIS TIME STEP      M/T          PACKAGE NAME    
     ------------------                 ------------------------                     ----------------

           IN:                                      IN:
           ---                                      ---
     STORAGE-AQUEOUS =  5754804414.9995       STORAGE-AQUEOUS =     3128574.9359     MST                              
                 WEL =  7884000000.0000                   WEL =           0.0000     SSM_WEL-1                        
                 CHD =           0.0000                   CHD =           0.0000     SSM_CHD-1                        

            TOTAL IN = 13638804414.9995              TOTAL IN =     3128574.9359

          OUT:                                     OUT:
          ----                                     ----
     STORAGE-AQUEOUS =  7888640167.1639       STORAGE-AQUEOUS =         328.0982     MST                              
                 WEL =  5750164247.8357                   WEL =     3128246.8377     SSM_WEL-1                        
                 CHD =       7.5562E-18                   CHD =           0.0000     SSM_CHD-1                        

           TOTAL OUT = 13638804414.9996             TOTAL OUT =     3128574.9359

            IN - OUT =      -6.6757E-05              IN - OUT =      -8.5682E-08

 PERCENT DISCREPANCY =          -0.00     PERCENT DISCREPANCY =          -0.00




         TIME SUMMARY AT END OF TIME STEP   38 IN STRESS PERIOD    2
                    SECONDS     MINUTES      HOURS       DAYS        YEARS
                    -----------------------------------------------------------
   TIME STEP LENGTH 2.16991E+06  36165.      602.75      25.115     6.87602E-02
 STRESS PERIOD TIME 8.24565E+07 1.37428E+06  22905.      954.36      2.6129    
         TOTAL TIME 1.61297E+08 2.68828E+06  44805.      1866.9      5.1112    


end timestep


start timestep kper="2" kstp="39" mode="normal"

 UBDSV1 SAVING  STORAGE-AQUEOUS ON UNIT   1029 AT TIME STEP     39, STRESS PERIOD      2
 UBDSV1 SAVING     FLOW-JA-FACE ON UNIT   1029 AT TIME STEP     39, STRESS PERIOD      2
 UBDSV06 SAVING  SOURCE-SINK MIX IN MODEL GWT_P06-MF6      PACKAGE GWT_P06-MF6     CONNECTED TO MODEL GWT_P06-MF6      PACKAGE SSM              ON UNIT   1029 AT TIME STEP     39, STRESS PERIOD      2
1
  CONCENTRATION IN LAYER   1 AT END OF TIME STEP  39 IN STRESS PERIOD    2
  ---------------------------------------------------------------------------

                1               2               3               4               5               6               7               8               9              10
               11              12              13              14              15              16              17              18              19              20
               21              22              23              24              25              26              27              28              29              30
               31
 ................................................................................................................................................................................................................................................................................................................................................................................................................................................................................................................
   1      0.00000        1.202946E-44    3.865124E-42    1.988716E-40   -1.552363E-37   -4.828566E-35   -7.595978E-33   -7.798401E-31   -5.618700E-29   -2.910948E-27
        -1.084819E-25   -2.865705E-24   -5.297585E-23   -7.012631E-22   -6.301195E-21   -3.845712E-20   -6.301042E-21   -7.011884E-22   -5.295779E-23   -2.862924E-24
        -1.082280E-25   -2.897006E-27   -5.570028E-29   -7.685298E-31   -7.416135E-33   -4.631472E-35   -1.405802E-37    2.692467E-40    4.060149E-42    1.226635E-44
          0.00000    
   2     1.202946E-44    3.061426E-42    3.177033E-40   -7.466297E-38   -3.307055E-35   -6.130451E-33   -7.221113E-31   -5.964529E-29   -3.582687E-27   -1.582553E-25
        -5.118830E-24   -1.195231E-22   -1.996424E-21   -2.432579E-20   -1.936377E-19   -9.834547E-19   -1.936335E-19   -2.432355E-20   -1.995836E-21   -1.194207E-22
        -5.108121E-24   -1.575799E-25   -3.555481E-27   -5.890803E-29   -7.082076E-31   -5.945096E-33   -3.132798E-35   -6.337754E-38    3.655864E-40    3.185901E-42
         1.226961E-44
   3     3.865124E-42    3.177033E-40   -5.174929E-38   -2.580365E-35   -5.170815E-33   -6.651897E-31   -6.071636E-29   -4.082351E-27   -2.050778E-25   -7.705936E-24
        -2.147965E-22   -4.384485E-21   -6.552717E-20   -7.367411E-19   -5.357295E-18   -2.225126E-17   -5.357194E-18   -7.366848E-19   -6.551090E-20   -4.381193E-21
        -2.143943E-22   -7.676551E-24   -2.037082E-25   -4.039132E-27   -5.975337E-29   -6.496512E-31   -4.987110E-33   -2.421009E-35   -4.161672E-38    3.661632E-40
         4.064803E-42
   4     1.988716E-40   -7.466297E-38   -2.580365E-35   -4.830702E-33   -6.284337E-31   -6.032475E-29   -4.372064E-27   -2.412840E-25   -1.014051E-23   -3.225644E-22
        -7.687507E-21   -1.363327E-19   -1.822738E-18   -1.832042E-17   -1.242849E-16   -5.091758E-16   -1.242828E-16   -1.831936E-17   -1.822388E-18   -1.362467E-19
        -7.674807E-21   -3.214689E-22   -1.008093E-23   -2.390906E-25   -4.314505E-27   -5.920989E-29   -6.121213E-31   -4.647274E-33   -2.418724E-35   -6.307945E-38
         2.718791E-40
   5    -1.552363E-37   -3.307055E-35   -5.170815E-33   -6.284337E-31   -5.998550E-29   -4.496044E-27   -2.636468E-25   -1.202240E-23   -4.228850E-22   -1.137723E-20
        -2.334479E-19   -3.695085E-18   -4.437544E-17   -4.025908E-16    5.800499E-16    3.353287E-14    5.801073E-16   -4.025672E-16   -4.436991E-17   -3.693403E-18
        -2.331281E-19   -1.134358E-20   -4.207166E-22   -1.192877E-23   -2.607593E-25   -4.429554E-27   -5.880468E-29   -6.118342E-31   -4.981199E-33   -3.125069E-35
        -1.397735E-37
   6    -4.828566E-35   -6.130451E-33   -6.651897E-31   -6.032475E-29   -4.496044E-27   -2.711313E-25   -1.304433E-23   -4.944401E-22   -1.463406E-20   -3.386490E-19
        -6.225192E-18   -8.663113E-17   -5.699122E-16    2.743018E-14    8.722814E-13    8.665046E-12    8.722821E-13    2.743064E-14   -5.697984E-16   -8.660995E-17
        -6.219311E-18   -3.378417E-19   -1.457065E-20   -4.911909E-22   -1.292640E-23   -2.679261E-25   -4.428117E-27   -5.916584E-29   -6.488073E-31   -5.932748E-33
        -4.616255E-35
   7    -7.595978E-33   -7.221113E-31   -6.071636E-29   -4.372064E-27   -2.636468E-25   -1.304433E-23   -5.204192E-22   -1.656105E-20   -4.217457E-19   -8.722946E-18
        -1.309307E-16    3.106511E-16    1.613363E-13    6.783894E-12    1.424103E-10    1.257108E-09    1.424103E-10    6.783896E-12    1.613376E-13    3.108745E-16
        -1.308665E-16   -8.709155E-18   -4.203366E-19   -1.647330E-20   -5.166386E-22   -1.292325E-23   -2.606189E-25   -4.310665E-27   -5.967477E-29   -7.069008E-31
        -7.397341E-33
   8    -7.798401E-31   -5.964529E-29   -4.082351E-27   -2.412840E-25   -1.202240E-23   -4.944401E-22   -1.656105E-20   -4.535270E-19   -1.029086E-17   -1.609567E-16
         2.700397E-15    4.894371E-13    2.690850E-11    8.832335E-10    1.685835E-08    1.391080E-07    1.685835E-08    8.832335E-10    2.690851E-11    4.894369E-13
         2.700777E-15   -1.608246E-16   -1.026934E-17   -4.517925E-19   -1.647038E-20   -4.909948E-22   -1.192106E-23   -2.388705E-25   -4.034158E-27   -5.881415E-29
        -7.669725E-31
   9    -5.618700E-29   -3.582687E-27   -2.050778E-25   -1.014051E-23   -4.228850E-22   -1.463406E-20   -4.217457E-19   -1.029086E-17   -1.709207E-16    5.048131E-15
         9.148786E-13    6.369872E-11    2.879309E-09    8.535569E-08    1.498465E-06    1.144302E-05    1.498465E-06    8.535569E-08    2.879309E-09    6.369874E-11
         9.148753E-13    5.048648E-15   -1.707462E-16   -1.026843E-17   -4.202293E-19   -1.456414E-20   -4.204475E-22   -1.007251E-23   -2.034952E-25   -3.550928E-27
        -5.561396E-29
  10    -2.910948E-27   -1.582553E-25   -7.705936E-24   -3.225644E-22   -1.137723E-20   -3.386490E-19   -8.722946E-18   -1.609567E-16    5.048131E-15    1.120558E-12
         9.652728E-11    5.615532E-09    2.261902E-07    6.002515E-06    9.465807E-05    6.532954E-04    9.465807E-05    6.002515E-06    2.261902E-07    5.615532E-09
         9.652733E-11    1.120552E-12    5.048640E-15   -1.608128E-16   -8.707373E-18   -3.377168E-19   -1.133772E-20   -3.212608E-22   -7.670587E-24   -1.574355E-25
        -2.893894E-27
  11    -1.084819E-25   -5.118830E-24   -2.147965E-22   -7.687507E-21   -2.334479E-19   -6.225192E-18   -1.309307E-16    2.700397E-15    9.148786E-13    9.652728E-11
         6.971826E-09    3.579136E-07    1.259188E-05    2.879670E-04    3.913958E-03    2.351344E-02    3.913958E-03    2.879670E-04    1.259188E-05    3.579136E-07
         6.971826E-09    9.652734E-11    9.148737E-13    2.700759E-15   -1.308558E-16   -6.218081E-18   -2.330550E-19   -7.671733E-21   -2.142925E-22   -5.105307E-24
        -1.081591E-25
  12    -2.865705E-24   -1.195231E-22   -4.384485E-21   -1.363327E-19   -3.695085E-18   -8.663113E-17    3.106511E-16    4.894371E-13    6.369872E-11    5.615532E-09
         3.579136E-07    1.589397E-05    4.673443E-04    8.661567E-03    9.475224E-02    0.464731        9.475224E-02    8.661567E-03    4.673443E-04    1.589397E-05
         3.579136E-07    5.615532E-09    6.369875E-11    4.894358E-13    3.108843E-16   -8.660539E-17   -3.692960E-18   -1.362226E-19   -4.380239E-21   -1.193902E-22
        -2.862072E-24
  13    -5.297585E-23   -1.996424E-21   -6.552717E-20   -1.822738E-18   -4.437544E-17   -5.699122E-16    1.613363E-13    2.690850E-11    2.879309E-09    2.261902E-07
         1.259188E-05    4.673443E-04    1.082008E-02    0.147968         1.16322         4.18012         1.16322        0.147968        1.082008E-02    4.673443E-04
         1.259188E-05    2.261902E-07    2.879309E-09    2.690851E-11    1.613376E-13   -5.697819E-16   -4.436871E-17   -1.822298E-18   -6.550647E-20   -1.995670E-21
        -5.295253E-23
  14    -7.012631E-22   -2.432579E-20   -7.367411E-19   -1.832042E-17   -4.025908E-16    2.743018E-14    6.783894E-12    8.832335E-10    8.535569E-08    6.002515E-06
         2.879670E-04    8.661567E-03    0.147968         1.32695         6.41610         15.0379         6.41610         1.32695        0.147968        8.661567E-03
         2.879670E-04    6.002515E-06    8.535569E-08    8.832335E-10    6.783897E-12    2.743070E-14   -4.025635E-16   -1.831916E-17   -7.366737E-19   -2.432310E-20
        -7.011726E-22
  15    -6.301195E-21   -1.936377E-19   -5.357295E-18   -1.242849E-16    5.800499E-16    8.722814E-13    1.424103E-10    1.685835E-08    1.498465E-06    9.465807E-05
         3.913958E-03    9.475224E-02     1.16322         6.41610         18.7435         26.5696         18.7435         6.41610         1.16322        9.475224E-02
         3.913958E-03    9.465807E-05    1.498465E-06    1.685835E-08    1.424103E-10    8.722822E-13    5.801153E-16   -1.242825E-16   -5.357181E-18   -1.936329E-19
        -6.301024E-21
  16    -3.845712E-20   -9.834547E-19   -2.225126E-17   -5.091758E-16    3.353287E-14    8.665046E-12    1.257108E-09    1.391080E-07    1.144302E-05    6.532954E-04
         2.351344E-02    0.464731         4.18012         15.0379         26.5696         34.8756         26.5696         15.0379         4.18012        0.464731    
         2.351344E-02    6.532954E-04    1.144302E-05    1.391080E-07    1.257108E-09    8.665046E-12    3.353287E-14   -5.091759E-16   -2.225126E-17   -9.834548E-19
        -3.845712E-20
  17    -6.301042E-21   -1.936335E-19   -5.357194E-18   -1.242828E-16    5.801073E-16    8.722821E-13    1.424103E-10    1.685835E-08    1.498465E-06    9.465807E-05
         3.913958E-03    9.475224E-02     1.16322         6.41610         18.7435         26.5696         18.7435         6.41610         1.16322        9.475224E-02
         3.913958E-03    9.465807E-05    1.498465E-06    1.685835E-08    1.424103E-10    8.722814E-13    5.800501E-16   -1.242849E-16   -5.357295E-18   -1.936377E-19
        -6.301195E-21
  18    -7.011884E-22   -2.432355E-20   -7.366848E-19   -1.831936E-17   -4.025672E-16    2.743064E-14    6.783896E-12    8.832335E-10    8.535569E-08    6.002515E-06
         2.879670E-04    8.661567E-03    0.147968         1.32695         6.41610         15.0379         6.41610         1.32695        0.147968        8.661567E-03
         2.879670E-04    6.002515E-06    8.535569E-08    8.832335E-10    6.783894E-12    2.743018E-14   -4.025908E-16   -1.832042E-17   -7.367411E-19   -2.432579E-20
        -7.012631E-22
  19    -5.295779E-23   -1.995836E-21   -6.551090E-20   -1.822388E-18   -4.436991E-17   -5.697984E-16    1.613376E-13    2.690851E-11    2.879309E-09    2.261902E-07
         1.259188E-05    4.673443E-04    1.082008E-02    0.147968         1.16322         4.18012         1.16322        0.147968        1.082008E-02    4.673443E-04
         1.259188E-05    2.261902E-07    2.879309E-09    2.690850E-11    1.613363E-13   -5.699122E-16   -4.437544E-17   -1.822738E-18   -6.552717E-20   -1.996424E-21
        -5.297585E-23
  20    -2.862924E-24   -1.194207E-22   -4.381193E-21   -1.362467E-19   -3.693403E-18   -8.660995E-17    3.108745E-16    4.894369E-13    6.369874E-11    5.615532E-09
         3.579136E-07    1.589397E-05    4.673443E-04    8.661567E-03    9.475224E-02    0.464731        9.475224E-02    8.661567E-03    4.673443E-04    1.589397E-05
         3.579136E-07    5.615532E-09    6.369872E-11    4.894371E-13    3.106511E-16   -8.663113E-17   -3.695085E-18   -1.363327E-19   -4.384485E-21   -1.195231E-22
        -2.865705E-24
  21    -1.082280E-25   -5.108121E-24   -2.143943E-22   -7.674807E-21   -2.331281E-19   -6.219311E-18   -1.308665E-16    2.700777E-15    9.148753E-13    9.652733E-11
         6.971826E-09    3.579136E-07    1.259188E-05    2.879670E-04    3.913958E-03    2.351344E-02    3.913958E-03    2.879670E-04    1.259188E-05    3.579136E-07
         6.971826E-09    9.652728E-11    9.148786E-13    2.700397E-15   -1.309307E-16   -6.225192E-18   -2.334479E-19   -7.687507E-21   -2.147965E-22   -5.118829E-24
        -1.084819E-25
  22    -2.897006E-27   -1.575799E-25   -7.676551E-24   -3.214689E-22   -1.134358E-20   -3.378417E-19   -8.709155E-18   -1.608246E-16    5.048648E-15    1.120552E-12
         9.652734E-11    5.615532E-09    2.261902E-07    6.002515E-06    9.465807E-05    6.532954E-04    9.465807E-05    6.002515E-06    2.261902E-07    5.615532E-09
         9.652728E-11    1.120558E-12    5.048131E-15   -1.609567E-16   -8.722946E-18   -3.386490E-19   -1.137723E-20   -3.225644E-22   -7.705936E-24   -1.582553E-25
        -2.910948E-27
  23    -5.570028E-29   -3.555481E-27   -2.037082E-25   -1.008093E-23   -4.207166E-22   -1.457065E-20   -4.203366E-19   -1.026934E-17   -1.707462E-16    5.048640E-15
         9.148737E-13    6.369875E-11    2.879309E-09    8.535569E-08    1.498465E-06    1.144302E-05    1.498465E-06    8.535569E-08    2.879309E-09    6.369872E-11
         9.148786E-13    5.048131E-15   -1.709207E-16   -1.029086E-17   -4.217457E-19   -1.463406E-20   -4.228850E-22   -1.014051E-23   -2.050778E-25   -3.582687E-27
        -5.618700E-29
  24    -7.685298E-31   -5.890803E-29   -4.039132E-27   -2.390906E-25   -1.192877E-23   -4.911909E-22   -1.647330E-20   -4.517925E-19   -1.026843E-17   -1.608128E-16
         2.700759E-15    4.894358E-13    2.690851E-11    8.832335E-10    1.685835E-08    1.391080E-07    1.685835E-08    8.832335E-10    2.690850E-11    4.894371E-13
         2.700397E-15   -1.609567E-16   -1.029086E-17   -4.535270E-19   -1.656105E-20   -4.944401E-22   -1.202240E-23   -2.412840E-25   -4.082351E-27   -5.964529E-29
        -7.798401E-31
  25    -7.416135E-33   -7.082076E-31   -5.975337E-29   -4.314505E-27   -2.607593E-25   -1.292640E-23   -5.166386E-22   -1.647038E-20   -4.202293E-19   -8.707373E-18
        -1.308558E-16    3.108843E-16    1.613376E-13    6.783897E-12    1.424103E-10    1.257108E-09    1.424103E-10    6.783894E-12    1.613363E-13    3.106511E-16
        -1.309307E-16   -8.722946E-18   -4.217457E-19   -1.656105E-20   -5.204192E-22   -1.304433E-23   -2.636468E-25   -4.372064E-27   -6.071636E-29   -7.221113E-31
        -7.595978E-33
  26    -4.631472E-35   -5.945096E-33   -6.496512E-31   -5.920989E-29   -4.429554E-27   -2.679261E-25   -1.292325E-23   -4.909948E-22   -1.456414E-20   -3.377168E-19
        -6.218081E-18   -8.660539E-17   -5.697819E-16    2.743070E-14    8.722822E-13    8.665046E-12    8.722814E-13    2.743018E-14   -5.699122E-16   -8.663113E-17
        -6.225192E-18   -3.386490E-19   -1.463406E-20   -4.944401E-22   -1.304433E-23   -2.711313E-25   -4.496044E-27   -6.032475E-29   -6.651897E-31   -6.130451E-33
        -4.828566E-35
  27    -1.405802E-37   -3.132798E-35   -4.987110E-33   -6.121213E-31   -5.880468E-29   -4.428117E-27   -2.606189E-25   -1.192106E-23   -4.204475E-22   -1.133772E-20
        -2.330550E-19   -3.692960E-18   -4.436871E-17   -4.025635E-16    5.801153E-16    3.353287E-14    5.800501E-16   -4.025908E-16   -4.437544E-17   -3.695085E-18
        -2.334479E-19   -1.137723E-20   -4.228850E-22   -1.202240E-23   -2.636468E-25   -4.496044E-27   -5.998550E-29   -6.284337E-31   -5.170815E-33   -3.307055E-35
        -1.552363E-37
  28     2.692467E-40   -6.337754E-38   -2.421009E-35   -4.647274E-33   -6.118342E-31   -5.916584E-29   -4.310665E-27   -2.388705E-25   -1.007251E-23   -3.212608E-22
        -7.671733E-21   -1.362226E-19   -1.822298E-18   -1.831916E-17   -1.242825E-16   -5.091759E-16   -1.242849E-16   -1.832042E-17   -1.822738E-18   -1.363327E-19
        -7.687507E-21   -3.225644E-22   -1.014051E-23   -2.412840E-25   -4.372064E-27   -6.032475E-29   -6.284337E-31   -4.830702E-33   -2.580365E-35   -7.466297E-38
         1.988717E-40
  29     4.060149E-42    3.655864E-40   -4.161672E-38   -2.418724E-35   -4.981199E-33   -6.488073E-31   -5.967477E-29   -4.034158E-27   -2.034952E-25   -7.670587E-24
        -2.142925E-22   -4.380239E-21   -6.550647E-20   -7.366737E-19   -5.357181E-18   -2.225126E-17   -5.357295E-18   -7.367411E-19   -6.552717E-20   -4.384485E-21
        -2.147965E-22   -7.705936E-24   -2.050778E-25   -4.082351E-27   -6.071636E-29   -6.651897E-31   -5.170815E-33   -2.580365E-35   -5.174929E-38    3.177033E-40
         3.865124E-42
  30     1.226635E-44    3.185901E-42    3.661632E-40   -6.307945E-38   -3.125069E-35   -5.932748E-33   -7.069008E-31   -5.881415E-29   -3.550928E-27   -1.574355E-25
        -5.105307E-24   -1.193902E-22   -1.995670E-21   -2.432310E-20   -1.936329E-19   -9.834548E-19   -1.936377E-19   -2.432579E-20   -1.996424E-21   -1.195231E-22
        -5.118829E-24   -1.582553E-25   -3.582687E-27   -5.964529E-29   -7.221113E-31   -6.130451E-33   -3.307055E-35   -7.466297E-38    3.177033E-40    3.061426E-42
         1.202946E-44
  31      0.00000        1.226961E-44    4.064803E-42    2.718791E-40   -1.397735E-37   -4.616255E-35   -7.397341E-33   -7.669725E-31   -5.561396E-29   -2.893894E-27
        -1.081591E-25   -2.862072E-24   -5.295253E-23   -7.011726E-22   -6.301024E-21   -3.845712E-20   -6.301195E-21   -7.012631E-22   -5.297585E-23   -2.865705E-24
        -1.084819E-25   -2.910948E-27   -5.618700E-29   -7.798401E-31   -7.595978E-33   -4.828566E-35   -1.552363E-37    1.988717E-40    3.865124E-42    1.202946E-44
          0.00000    

 CONCENTRATION WILL BE SAVED ON UNIT 1030 AT END OF TIME STEP   39, STRESS PERIOD    2


  MASS BUDGET FOR ENTIRE MODEL AT END OF TIME STEP   39, STRESS PERIOD   2
  ---------------------------------------------------------------------------------------------------

     CUMULATIVE MASS      M       RATES FOR THIS TIME STEP      M/T          PACKAGE NAME    
     ------------------                 ------------------------                     ----------------

           IN:                                      IN:
           ---                                      ---
     STORAGE-AQUEOUS =  5830488768.5627       STORAGE-AQUEOUS =     3013550.5163     MST                              
                 WEL =  7884000000.0000                   WEL =           0.0000     SSM_WEL-1                        
                 CHD =           0.0000                   CHD =           0.0000     SSM_CHD-1                        

            TOTAL IN = 13714488768.5627              TOTAL IN =     3013550.5163

          OUT:                                     OUT:
          ----                                     ----
     STORAGE-AQUEOUS =  7888647566.4542       STORAGE-AQUEOUS =         294.6201     MST                              
                 WEL =  5825841202.1086                   WEL =     3013255.8962     SSM_WEL-1                        
                 CHD =       7.5562E-18                   CHD =           0.0000     SSM_CHD-1                        

           TOTAL OUT = 13714488768.5628             TOTAL OUT =     3013550.5163

            IN - OUT =      -6.8665E-05              IN - OUT =      -8.0559E-08

 PERCENT DISCREPANCY =          -0.00     PERCENT DISCREPANCY =          -0.00




         TIME SUMMARY AT END OF TIME STEP   39 IN STRESS PERIOD    2
                    SECONDS     MINUTES      HOURS       DAYS        YEARS
                    -----------------------------------------------------------
   TIME STEP LENGTH 2.16991E+06  36165.      602.75      25.115     6.87602E-02
 STRESS PERIOD TIME 8.46264E+07 1.41044E+06  23507.      979.47      2.6816    
         TOTAL TIME 1.63466E+08 2.72444E+06  45407.      1892.0      5.1799    


end timestep


start timestep kper="2" kstp="40" mode="normal"

 UBDSV1 SAVING  STORAGE-AQUEOUS ON UNIT   1029 AT TIME STEP     40, STRESS PERIOD      2
 UBDSV1 SAVING     FLOW-JA-FACE ON UNIT   1029 AT TIME STEP     40, STRESS PERIOD      2
 UBDSV06 SAVING  SOURCE-SINK MIX IN MODEL GWT_P06-MF6      PACKAGE GWT_P06-MF6     CONNECTED TO MODEL GWT_P06-MF6      PACKAGE SSM              ON UNIT   1029 AT TIME STEP     40, STRESS PERIOD      2
1
  CONCENTRATION IN LAYER   1 AT END OF TIME STEP  40 IN STRESS PERIOD    2
  ---------------------------------------------------------------------------

                1               2               3               4               5               6               7               8               9              10
               11              12              13              14              15              16              17              18              19              20
               21              22              23              24              25              26              27              28              29              30
               31
 ................................................................................................................................................................................................................................................................................................................................................................................................................................................................................................................
   1      0.00000        1.247887E-44    3.911805E-42    1.541832E-40   -1.741851E-37   -5.207592E-35   -8.072504E-33   -8.208989E-31   -5.869494E-29   -3.020566E-27
        -1.118935E-25   -2.940708E-24   -5.415055E-23   -7.143473E-22   -6.395223E-21   -3.877821E-20   -6.395068E-21   -7.142717E-22   -5.413223E-23   -2.937881E-24
        -1.116344E-25   -3.006269E-27   -5.819324E-29   -8.091760E-31   -7.885019E-33   -5.000872E-35   -1.587127E-37    2.290392E-40    4.121360E-42    1.273806E-44
          0.00000    
   2     1.247887E-44    3.110815E-42    2.977374E-40   -8.587856E-38   -3.570062E-35   -6.510962E-33   -7.597912E-31   -6.230940E-29   -3.719410E-27   -1.633547E-25
        -5.255896E-24   -1.221587E-22   -2.033193E-21   -2.469352E-20   -1.959992E-19   -9.896730E-19   -1.959949E-19   -2.469126E-20   -2.032600E-21   -1.220550E-22
        -5.245003E-24   -1.626647E-25   -3.691486E-27   -6.154898E-29   -7.453804E-31   -6.317888E-33   -3.387617E-35   -7.399663E-38    3.485039E-40    3.244251E-42
         1.274167E-44
   3     3.911805E-42    2.977374E-40   -6.071835E-38   -2.788017E-35   -5.487903E-33   -6.993799E-31   -6.340081E-29   -4.237907E-27   -2.117451E-25   -7.915989E-24
        -2.196108E-22   -4.464767E-21   -6.652719E-20   -7.453304E-19   -5.405113E-18   -2.227121E-17   -5.405011E-18   -7.452738E-19   -6.651080E-20   -4.461442E-21
        -2.192032E-22   -7.886077E-24   -2.103448E-25   -4.193520E-27   -6.240742E-29   -6.832804E-31   -5.296723E-33   -2.621391E-35   -5.006282E-38    3.491223E-40
         4.126425E-42
   4     1.541832E-40   -8.587856E-38   -2.788017E-35   -5.125306E-33   -6.603585E-31   -6.295933E-29   -4.537226E-27   -2.491121E-25   -1.041875E-23   -3.299096E-22
        -7.831267E-21   -1.384650E-19   -1.845878E-18   -1.839080E-17   -1.227739E-16   -4.797618E-16   -1.227718E-16   -1.838974E-17   -1.845527E-18   -1.383785E-19
        -7.818442E-21   -3.287986E-22   -1.035807E-23   -2.468683E-25   -4.478097E-27   -6.180935E-29   -6.434628E-31   -4.934486E-33   -2.618985E-35   -7.368012E-38
         2.318682E-40
   5    -1.741851E-37   -3.570062E-35   -5.487903E-33   -6.603585E-31   -6.259122E-29   -4.664683E-27   -2.721542E-25   -1.235215E-23   -4.325995E-22   -1.159513E-20
        -2.372494E-19   -3.742500E-18   -4.425144E-17   -3.764387E-16    1.259895E-15    3.955748E-14    1.259952E-15   -3.764149E-16   -4.424590E-17   -3.740815E-18
        -2.369279E-19   -1.156114E-20   -4.303994E-22   -1.225673E-23   -2.691996E-25   -4.596372E-27   -6.137323E-29   -6.431644E-31   -5.290541E-33   -3.379473E-35
        -1.578544E-37
   6    -5.207592E-35   -6.510962E-33   -6.993799E-31   -6.295933E-29   -4.664683E-27   -2.798575E-25   -1.340141E-23   -5.058352E-22   -1.491865E-20   -3.443103E-19
        -6.298975E-18   -8.547162E-17   -4.148230E-16    3.301156E-14    9.787959E-13    9.531726E-12    9.787966E-13    3.301201E-14   -4.147090E-16   -8.545042E-17
        -6.293092E-18   -3.434986E-19   -1.485458E-20   -5.025376E-22   -1.328122E-23   -2.765774E-25   -4.594893E-27   -6.176378E-29   -6.824028E-31   -6.304965E-33
        -4.984817E-35
   7    -8.072504E-33   -7.597912E-31   -6.340081E-29   -4.537226E-27   -2.721542E-25   -1.340141E-23   -5.324209E-22   -1.688526E-20   -4.288635E-19   -8.812656E-18
        -1.266484E-16    8.216254E-16    1.859103E-13    7.525280E-12    1.554664E-10    1.355369E-09    1.554664E-10    7.525282E-12    1.859116E-13    8.218460E-16
        -1.265844E-16   -8.798869E-18   -4.274465E-19   -1.679658E-20   -5.285834E-22   -1.327801E-23   -2.690556E-25   -4.474144E-27   -6.232611E-29   -7.440212E-31
        -7.865342E-33
   8    -8.208989E-31   -6.230940E-29   -4.237907E-27   -2.491121E-25   -1.235215E-23   -5.058352E-22   -1.688526E-20   -4.611945E-19   -1.038489E-17   -1.524965E-16
         3.774784E-15    5.558435E-13    2.968244E-11    9.591373E-10    1.806842E-08    1.472964E-07    1.806842E-08    9.591372E-10    2.968245E-11    5.558433E-13
         3.775155E-15   -1.523650E-16   -1.036338E-17   -4.594503E-19   -1.679363E-20   -5.023384E-22   -1.224887E-23   -2.466428E-25   -4.188402E-27   -6.145193E-29
        -8.075571E-31
   9    -5.869494E-29   -3.719410E-27   -2.117451E-25   -1.041875E-23   -4.325995E-22   -1.491865E-20   -4.288635E-19   -1.038489E-17   -1.604594E-16    6.590003E-15
         1.032689E-12    7.003296E-11    3.114486E-09    9.100223E-08    1.576514E-06    1.189198E-05    1.576514E-06    9.100223E-08    3.114486E-09    7.003299E-11
         1.032686E-12    6.590506E-15   -1.602859E-16   -1.036247E-17   -4.273387E-19   -1.484800E-20   -4.301263E-22   -1.034948E-23   -2.101267E-25   -3.686805E-27
        -5.810409E-29
  10    -3.020566E-27   -1.633547E-25   -7.915989E-24   -3.299096E-22   -1.159513E-20   -3.443103E-19   -8.812656E-18   -1.524965E-16    6.590003E-15    1.262658E-12
         1.059569E-10    6.059062E-09    2.401996E-07    6.279448E-06    9.769054E-05    6.660031E-04    9.769054E-05    6.279448E-06    2.401996E-07    6.059062E-09
         1.059570E-10    1.262652E-12    6.590497E-15   -1.523533E-16   -8.797090E-18   -3.433731E-19   -1.155522E-20   -3.285875E-22   -7.880003E-24   -1.625171E-25
        -3.003075E-27
  11    -1.118935E-25   -5.255896E-24   -2.196108E-22   -7.831267E-21   -2.372494E-19   -6.298975E-18   -1.266484E-16    3.774784E-15    1.032689E-12    1.059569E-10
         7.516040E-09    3.792670E-07    1.312099E-05    2.954182E-04    3.960776E-03    2.351326E-02    3.960776E-03    2.954182E-04    1.312099E-05    3.792670E-07
         7.516040E-09    1.059570E-10    1.032684E-12    3.775137E-15   -1.265738E-16   -6.291863E-18   -2.368545E-19   -7.815339E-21   -2.191000E-22   -5.242141E-24
        -1.115641E-25
  12    -2.940708E-24   -1.221587E-22   -4.464767E-21   -1.384650E-19   -3.742500E-18   -8.547162E-17    8.216254E-16    5.558435E-13    7.003296E-11    6.059062E-09
         3.792670E-07    1.653832E-05    4.777356E-04    8.712440E-03    9.404943E-02    0.456364        9.404943E-02    8.712440E-03    4.777356E-04    1.653832E-05
         3.792670E-07    6.059062E-09    7.003299E-11    5.558422E-13    8.218550E-16   -8.544589E-17   -3.740372E-18   -1.383543E-19   -4.460479E-21   -1.220241E-22
        -2.937015E-24
  13    -5.415055E-23   -2.033193E-21   -6.652719E-20   -1.845878E-18   -4.425144E-17   -4.148230E-16    1.859103E-13    2.968244E-11    3.114486E-09    2.401996E-07
         1.312099E-05    4.777356E-04    1.085756E-02    0.146093         1.13504         4.04816         1.13504        0.146093        1.085756E-02    4.777356E-04
         1.312099E-05    2.401996E-07    3.114486E-09    2.968245E-11    1.859117E-13   -4.146926E-16   -4.424470E-17   -1.845437E-18   -6.650635E-20   -2.032432E-21
        -5.412690E-23
  14    -7.143473E-22   -2.469352E-20   -7.453304E-19   -1.839080E-17   -3.764387E-16    3.301156E-14    7.525280E-12    9.591373E-10    9.100223E-08    6.279448E-06
         2.954182E-04    8.712440E-03    0.146093         1.29091         6.19439         14.4852         6.19439         1.29091        0.146093        8.712440E-03
         2.954182E-04    6.279448E-06    9.100223E-08    9.591372E-10    7.525282E-12    3.301207E-14   -3.764111E-16   -1.838954E-17   -7.452627E-19   -2.469080E-20
        -7.142558E-22
  15    -6.395223E-21   -1.959992E-19   -5.405113E-18   -1.227739E-16    1.259895E-15    9.787959E-13    1.554664E-10    1.806842E-08    1.576514E-06    9.769054E-05
         3.960776E-03    9.404943E-02     1.13504         6.19439         18.0675         25.5864         18.0675         6.19439         1.13504        9.404943E-02
         3.960776E-03    9.769054E-05    1.576514E-06    1.806842E-08    1.554664E-10    9.787966E-13    1.259960E-15   -1.227715E-16   -5.404998E-18   -1.959944E-19
        -6.395050E-21
  16    -3.877821E-20   -9.896730E-19   -2.227121E-17   -4.797618E-16    3.955748E-14    9.531726E-12    1.355369E-09    1.472964E-07    1.189198E-05    6.660031E-04
         2.351326E-02    0.456364         4.04816         14.4852         25.5864         33.5920         25.5864         14.4852         4.04816        0.456364    
         2.351326E-02    6.660031E-04    1.189198E-05    1.472964E-07    1.355369E-09    9.531726E-12    3.955748E-14   -4.797618E-16   -2.227121E-17   -9.896730E-19
        -3.877821E-20
  17    -6.395068E-21   -1.959949E-19   -5.405011E-18   -1.227718E-16    1.259952E-15    9.787966E-13    1.554664E-10    1.806842E-08    1.576514E-06    9.769054E-05
         3.960776E-03    9.404943E-02     1.13504         6.19439         18.0675         25.5864         18.0675         6.19439         1.13504        9.404943E-02
         3.960776E-03    9.769054E-05    1.576514E-06    1.806842E-08    1.554664E-10    9.787959E-13    1.259895E-15   -1.227739E-16   -5.405113E-18   -1.959992E-19
        -6.395223E-21
  18    -7.142717E-22   -2.469126E-20   -7.452738E-19   -1.838974E-17   -3.764149E-16    3.301201E-14    7.525282E-12    9.591372E-10    9.100223E-08    6.279448E-06
         2.954182E-04    8.712440E-03    0.146093         1.29091         6.19439         14.4852         6.19439         1.29091        0.146093        8.712440E-03
         2.954182E-04    6.279448E-06    9.100223E-08    9.591373E-10    7.525280E-12    3.301156E-14   -3.764387E-16   -1.839080E-17   -7.453303E-19   -2.469352E-20
        -7.143473E-22
  19    -5.413223E-23   -2.032600E-21   -6.651080E-20   -1.845527E-18   -4.424590E-17   -4.147090E-16    1.859116E-13    2.968245E-11    3.114486E-09    2.401996E-07
         1.312099E-05    4.777356E-04    1.085756E-02    0.146093         1.13504         4.04816         1.13504        0.146093        1.085756E-02    4.777356E-04
         1.312099E-05    2.401996E-07    3.114486E-09    2.968244E-11    1.859104E-13   -4.148230E-16   -4.425144E-17   -1.845878E-18   -6.652719E-20   -2.033193E-21
        -5.415055E-23
  20    -2.937881E-24   -1.220550E-22   -4.461442E-21   -1.383785E-19   -3.740815E-18   -8.545042E-17    8.218460E-16    5.558433E-13    7.003299E-11    6.059062E-09
         3.792670E-07    1.653832E-05    4.777356E-04    8.712440E-03    9.404943E-02    0.456364        9.404943E-02    8.712440E-03    4.777356E-04    1.653832E-05
         3.792670E-07    6.059062E-09    7.003296E-11    5.558435E-13    8.216255E-16   -8.547162E-17   -3.742500E-18   -1.384650E-19   -4.464766E-21   -1.221587E-22
        -2.940708E-24
  21    -1.116344E-25   -5.245003E-24   -2.192032E-22   -7.818442E-21   -2.369279E-19   -6.293092E-18   -1.265844E-16    3.775155E-15    1.032686E-12    1.059570E-10
         7.516040E-09    3.792670E-07    1.312099E-05    2.954182E-04    3.960776E-03    2.351326E-02    3.960776E-03    2.954182E-04    1.312099E-05    3.792670E-07
         7.516040E-09    1.059569E-10    1.032689E-12    3.774784E-15   -1.266484E-16   -6.298975E-18   -2.372494E-19   -7.831267E-21   -2.196108E-22   -5.255896E-24
        -1.118935E-25
  22    -3.006269E-27   -1.626647E-25   -7.886077E-24   -3.287986E-22   -1.156114E-20   -3.434986E-19   -8.798869E-18   -1.523650E-16    6.590506E-15    1.262652E-12
         1.059570E-10    6.059062E-09    2.401996E-07    6.279448E-06    9.769054E-05    6.660031E-04    9.769054E-05    6.279448E-06    2.401996E-07    6.059062E-09
         1.059569E-10    1.262658E-12    6.590003E-15   -1.524965E-16   -8.812656E-18   -3.443103E-19   -1.159513E-20   -3.299096E-22   -7.915989E-24   -1.633547E-25
        -3.020566E-27
  23    -5.819324E-29   -3.691486E-27   -2.103448E-25   -1.035807E-23   -4.303994E-22   -1.485458E-20   -4.274465E-19   -1.036338E-17   -1.602859E-16    6.590497E-15
         1.032684E-12    7.003299E-11    3.114486E-09    9.100223E-08    1.576514E-06    1.189198E-05    1.576514E-06    9.100223E-08    3.114486E-09    7.003296E-11
         1.032689E-12    6.590003E-15   -1.604594E-16   -1.038489E-17   -4.288635E-19   -1.491865E-20   -4.325995E-22   -1.041875E-23   -2.117451E-25   -3.719410E-27
        -5.869494E-29
  24    -8.091760E-31   -6.154898E-29   -4.193520E-27   -2.468683E-25   -1.225673E-23   -5.025376E-22   -1.679658E-20   -4.594503E-19   -1.036247E-17   -1.523533E-16
         3.775137E-15    5.558422E-13    2.968245E-11    9.591372E-10    1.806842E-08    1.472964E-07    1.806842E-08    9.591373E-10    2.968244E-11    5.558435E-13
         3.774784E-15   -1.524965E-16   -1.038489E-17   -4.611945E-19   -1.688526E-20   -5.058352E-22   -1.235215E-23   -2.491121E-25   -4.237907E-27   -6.230940E-29
        -8.208989E-31
  25    -7.885019E-33   -7.453804E-31   -6.240742E-29   -4.478097E-27   -2.691996E-25   -1.328122E-23   -5.285834E-22   -1.679363E-20   -4.273387E-19   -8.797090E-18
        -1.265738E-16    8.218550E-16    1.859117E-13    7.525282E-12    1.554664E-10    1.355369E-09    1.554664E-10    7.525280E-12    1.859104E-13    8.216255E-16
        -1.266484E-16   -8.812656E-18   -4.288635E-19   -1.688526E-20   -5.324209E-22   -1.340141E-23   -2.721542E-25   -4.537226E-27   -6.340081E-29   -7.597912E-31
        -8.072504E-33
  26    -5.000872E-35   -6.317888E-33   -6.832804E-31   -6.180935E-29   -4.596372E-27   -2.765774E-25   -1.327801E-23   -5.023384E-22   -1.484800E-20   -3.433731E-19
        -6.291863E-18   -8.544589E-17   -4.146926E-16    3.301207E-14    9.787966E-13    9.531726E-12    9.787959E-13    3.301156E-14   -4.148230E-16   -8.547162E-17
        -6.298975E-18   -3.443103E-19   -1.491865E-20   -5.058352E-22   -1.340141E-23   -2.798575E-25   -4.664683E-27   -6.295933E-29   -6.993799E-31   -6.510962E-33
        -5.207592E-35
  27    -1.587127E-37   -3.387617E-35   -5.296723E-33   -6.434628E-31   -6.137323E-29   -4.594893E-27   -2.690556E-25   -1.224887E-23   -4.301263E-22   -1.155522E-20
        -2.368545E-19   -3.740372E-18   -4.424470E-17   -3.764111E-16    1.259960E-15    3.955748E-14    1.259895E-15   -3.764387E-16   -4.425144E-17   -3.742500E-18
        -2.372494E-19   -1.159513E-20   -4.325995E-22   -1.235215E-23   -2.721542E-25   -4.664683E-27   -6.259122E-29   -6.603585E-31   -5.487903E-33   -3.570062E-35
        -1.741850E-37
  28     2.290392E-40   -7.399663E-38   -2.621391E-35   -4.934486E-33   -6.431644E-31   -6.176378E-29   -4.474144E-27   -2.466428E-25   -1.034948E-23   -3.285875E-22
        -7.815339E-21   -1.383543E-19   -1.845437E-18   -1.838954E-17   -1.227715E-16   -4.797618E-16   -1.227739E-16   -1.839080E-17   -1.845878E-18   -1.384650E-19
        -7.831267E-21   -3.299096E-22   -1.041875E-23   -2.491121E-25   -4.537226E-27   -6.295933E-29   -6.603585E-31   -5.125306E-33   -2.788016E-35   -8.587856E-38
         1.541833E-40
  29     4.121360E-42    3.485039E-40   -5.006282E-38   -2.618985E-35   -5.290541E-33   -6.824028E-31   -6.232611E-29   -4.188402E-27   -2.101267E-25   -7.880003E-24
        -2.191000E-22   -4.460479E-21   -6.650635E-20   -7.452627E-19   -5.404998E-18   -2.227121E-17   -5.405113E-18   -7.453303E-19   -6.652719E-20   -4.464766E-21
        -2.196108E-22   -7.915989E-24   -2.117451E-25   -4.237907E-27   -6.340081E-29   -6.993799E-31   -5.487903E-33   -2.788016E-35   -6.071835E-38    2.977374E-40
         3.911805E-42
  30     1.273806E-44    3.244251E-42    3.491223E-40   -7.368012E-38   -3.379473E-35   -6.304965E-33   -7.440212E-31   -6.145193E-29   -3.686805E-27   -1.625171E-25
        -5.242141E-24   -1.220241E-22   -2.032432E-21   -2.469080E-20   -1.959944E-19   -9.896730E-19   -1.959992E-19   -2.469352E-20   -2.033193E-21   -1.221587E-22
        -5.255896E-24   -1.633547E-25   -3.719410E-27   -6.230940E-29   -7.597912E-31   -6.510962E-33   -3.570062E-35   -8.587856E-38    2.977374E-40    3.110815E-42
         1.247887E-44
  31      0.00000        1.274167E-44    4.126425E-42    2.318682E-40   -1.578544E-37   -4.984817E-35   -7.865342E-33   -8.075571E-31   -5.810409E-29   -3.003075E-27
        -1.115641E-25   -2.937015E-24   -5.412690E-23   -7.142558E-22   -6.395050E-21   -3.877821E-20   -6.395223E-21   -7.143473E-22   -5.415055E-23   -2.940708E-24
        -1.118935E-25   -3.020566E-27   -5.869494E-29   -8.208989E-31   -8.072504E-33   -5.207592E-35   -1.741850E-37    1.541833E-40    3.911805E-42    1.247887E-44
          0.00000    

 CONCENTRATION WILL BE SAVED ON UNIT 1030 AT END OF TIME STEP   40, STRESS PERIOD    2


  MASS BUDGET FOR ENTIRE MODEL AT END OF TIME STEP   40, STRESS PERIOD   2
  ---------------------------------------------------------------------------------------------------

     CUMULATIVE MASS      M       RATES FOR THIS TIME STEP      M/T          PACKAGE NAME    
     ------------------                 ------------------------                     ----------------

           IN:                                      IN:
           ---                                      ---
     STORAGE-AQUEOUS =  5903386835.4479       STORAGE-AQUEOUS =     2902607.9600     MST                              
                 WEL =  7884000000.0000                   WEL =           0.0000     SSM_WEL-1                        
                 CHD =           0.0000                   CHD =           0.0000     SSM_CHD-1                        

            TOTAL IN = 13787386835.4479              TOTAL IN =     2902607.9600

          OUT:                                     OUT:
          ----                                     ----
     STORAGE-AQUEOUS =  7888654149.8860       STORAGE-AQUEOUS =         262.1348     MST                              
                 WEL =  5898732685.5619                   WEL =     2902345.8252     SSM_WEL-1                        
                 CHD =       7.5562E-18                   CHD =           0.0000     SSM_CHD-1                        

           TOTAL OUT = 13787386835.4480             TOTAL OUT =     2902607.9600

            IN - OUT =      -7.2479E-05              IN - OUT =      -7.8231E-08

 PERCENT DISCREPANCY =          -0.00     PERCENT DISCREPANCY =          -0.00




         TIME SUMMARY AT END OF TIME STEP   40 IN STRESS PERIOD    2
                    SECONDS     MINUTES      HOURS       DAYS        YEARS
                    -----------------------------------------------------------
   TIME STEP LENGTH 2.16991E+06  36165.      602.75      25.115     6.87602E-02
 STRESS PERIOD TIME 8.67963E+07 1.44661E+06  24110.      1004.6      2.7504    
         TOTAL TIME 1.65636E+08 2.76061E+06  46010.      1917.1      5.2487    


end timestep


start timestep kper="2" kstp="41" mode="normal"

 UBDSV1 SAVING  STORAGE-AQUEOUS ON UNIT   1029 AT TIME STEP     41, STRESS PERIOD      2
 UBDSV1 SAVING     FLOW-JA-FACE ON UNIT   1029 AT TIME STEP     41, STRESS PERIOD      2
 UBDSV06 SAVING  SOURCE-SINK MIX IN MODEL GWT_P06-MF6      PACKAGE GWT_P06-MF6     CONNECTED TO MODEL GWT_P06-MF6      PACKAGE SSM              ON UNIT   1029 AT TIME STEP     41, STRESS PERIOD      2
1
  CONCENTRATION IN LAYER   1 AT END OF TIME STEP  41 IN STRESS PERIOD    2
  ---------------------------------------------------------------------------

                1               2               3               4               5               6               7               8               9              10
               11              12              13              14              15              16              17              18              19              20
               21              22              23              24              25              26              27              28              29              30
               31
 ................................................................................................................................................................................................................................................................................................................................................................................................................................................................................................................
   1      0.00000        1.293335E-44    3.949756E-42    1.040656E-40   -1.945867E-37   -5.609786E-35   -8.573504E-33   -8.637501E-31   -6.129549E-29   -3.133568E-27
        -1.153921E-25   -3.017286E-24   -5.534554E-23   -7.276104E-22   -6.490183E-21   -3.910080E-20   -6.490027E-21   -7.275339E-22   -5.532697E-23   -3.014412E-24
        -1.151276E-25   -3.118908E-27   -6.077845E-29   -8.516021E-31   -8.378105E-33   -5.393042E-35   -1.782595E-37    1.836437E-40    4.174738E-42    1.321647E-44
          0.00000    
   2     1.293335E-44    3.156075E-42    2.749370E-40   -9.796087E-38   -3.848944E-35   -6.910785E-33   -7.991086E-31   -6.507243E-29   -3.860416E-27   -1.685863E-25
        -5.395851E-24   -1.248395E-22   -2.070475E-21   -2.506492E-20   -1.983744E-19   -9.958477E-19   -1.983700E-19   -2.506265E-20   -2.069875E-21   -1.247344E-22
        -5.384770E-24   -1.678815E-25   -3.831758E-27   -6.428827E-29   -7.841749E-31   -6.709717E-33   -3.657978E-35   -8.545514E-38    3.287360E-40    3.299007E-42
         1.322046E-44
   3     3.949756E-42    2.749370E-40   -7.038356E-38   -3.008078E-35   -5.820872E-33   -7.350406E-31   -6.618454E-29   -4.398355E-27   -2.185873E-25   -8.130536E-24
        -2.245084E-22   -4.546199E-21   -6.753789E-20   -7.539117E-19   -5.451339E-18   -2.227084E-17   -5.451237E-18   -7.538549E-19   -6.752139E-20   -4.542842E-21
        -2.240953E-22   -8.100092E-24   -2.171558E-25   -4.352775E-27   -6.515994E-29   -7.183628E-31   -5.621953E-33   -2.833892E-35   -5.918146E-38    3.293986E-40
         4.180244E-42
   4     1.040656E-40   -9.796087E-38   -3.008078E-35   -5.434577E-33   -6.936449E-31   -6.569067E-29   -4.707568E-27   -2.571463E-25   -1.070302E-23   -3.373849E-22
        -7.977167E-21   -1.406202E-19   -1.868840E-18   -1.844050E-17   -1.207717E-16   -4.463293E-16   -1.207696E-16   -1.843943E-17   -1.868487E-18   -1.405332E-19
        -7.964217E-21   -3.362584E-22   -1.064122E-23   -2.548512E-25   -4.646834E-27   -6.450463E-29   -6.761479E-31   -5.236103E-33   -2.831361E-35   -8.511925E-38
         1.866817E-40
   5    -1.945867E-37   -3.848944E-35   -5.820872E-33   -6.936449E-31   -6.529233E-29   -4.838593E-27   -2.808856E-25   -1.268909E-23   -4.424899E-22   -1.181636E-20
        -2.410856E-19   -3.788566E-18   -4.421082E-17   -3.459399E-16    2.012393E-15    4.613105E-14    2.012450E-15   -3.459160E-16   -4.420524E-17   -3.786878E-18
        -2.407623E-19   -1.178203E-20   -4.402579E-22   -1.259188E-23   -2.778626E-25   -4.768421E-27   -6.403617E-29   -6.758376E-31   -5.615489E-33   -3.649400E-35
        -1.773467E-37
   6    -5.609786E-35   -6.910785E-33   -7.350406E-31   -6.569067E-29   -4.838593E-27   -2.888133E-25   -1.376632E-23   -5.174393E-22   -1.520765E-20   -3.500078E-19
        -6.367905E-18   -8.393875E-17   -2.382497E-16    3.915204E-14    1.094461E-12    1.046144E-11    1.094461E-12    3.915249E-14   -2.381355E-16   -8.391752E-17
        -6.362021E-18   -3.491917E-19   -1.514292E-20   -5.140928E-22   -1.364382E-23   -2.854569E-25   -4.766898E-27   -6.445750E-29   -7.174503E-31   -6.696195E-33
        -5.376112E-35
   7    -8.573504E-33   -7.991086E-31   -6.618454E-29   -4.707568E-27   -2.808856E-25   -1.376632E-23   -5.446434E-22   -1.721449E-20   -4.360092E-19   -8.892020E-18
        -1.212490E-16    1.392811E-15    2.128394E-13    8.326494E-12    1.693900E-10    1.458829E-09    1.693900E-10    8.326496E-12    2.128407E-13    1.393028E-15
        -1.211851E-16   -8.878238E-18   -4.345845E-19   -1.712489E-20   -5.407486E-22   -1.364054E-23   -2.777151E-25   -4.642765E-27   -6.507585E-29   -7.827616E-31
        -8.357510E-33
   8    -8.637501E-31   -6.507243E-29   -4.398355E-27   -2.571463E-25   -1.268909E-23   -5.174393E-22   -1.721449E-20   -4.688845E-19   -1.046412E-17   -1.421999E-16
         4.971366E-15    6.284085E-13    3.266818E-11    1.039639E-09    1.933376E-08    1.557429E-07    1.933376E-08    1.039639E-09    3.266818E-11    6.284083E-13
         4.971729E-15   -1.420691E-16   -1.044263E-17   -4.671306E-19   -1.712190E-20   -5.138905E-22   -1.258385E-23   -2.546203E-25   -4.347510E-27   -6.418794E-29
        -8.499196E-31
   9    -6.129549E-29   -3.860416E-27   -2.185873E-25   -1.070302E-23   -4.424899E-22   -1.520765E-20   -4.360092E-19   -1.046412E-17   -1.478361E-16    8.304396E-15
         1.161198E-12    7.683100E-11    3.362786E-09    9.686892E-08    1.656369E-06    1.234443E-05    1.656369E-06    9.686892E-08    3.362786E-09    7.683102E-11
         1.161195E-12    8.304886E-15   -1.476637E-16   -1.044172E-17   -4.344761E-19   -1.513627E-20   -4.399807E-22   -1.063246E-23   -2.169326E-25   -3.826947E-27
        -6.068640E-29
  10    -3.133568E-27   -1.685863E-25   -8.130536E-24   -3.373849E-22   -1.181636E-20   -3.500078E-19   -8.892020E-18   -1.421999E-16    8.304396E-15    1.417570E-12
         1.160615E-10    6.525940E-09    2.546813E-07    6.560588E-06    1.007134E-04    6.783981E-04    1.007134E-04    6.560588E-06    2.546813E-07    6.525940E-09
         1.160615E-10    1.417564E-12    8.304876E-15   -1.420575E-16   -8.876461E-18   -3.490655E-19   -1.177605E-20   -3.360442E-22   -8.093906E-24   -1.677306E-25
        -3.115630E-27
  11    -1.153921E-25   -5.395851E-24   -2.245084E-22   -7.977167E-21   -2.410856E-19   -6.367905E-18   -1.212490E-16    4.971366E-15    1.161198E-12    1.160615E-10
         8.088299E-09    4.012769E-07    1.365492E-05    3.027598E-04    4.005224E-03    2.350162E-02    4.005224E-03    3.027598E-04    1.365492E-05    4.012769E-07
         8.088299E-09    1.160615E-10    1.161193E-12    4.971709E-15   -1.211747E-16   -6.360793E-18   -2.406885E-19   -7.961085E-21   -2.239907E-22   -5.381859E-24
        -1.150559E-25
  12    -3.017286E-24   -1.248395E-22   -4.546199E-21   -1.406202E-19   -3.788566E-18   -8.393875E-17    1.392811E-15    6.284085E-13    7.683100E-11    6.525940E-09
         4.012769E-07    1.718703E-05    4.878841E-04    8.757767E-03    9.331554E-02    0.448076        9.331554E-02    8.757767E-03    4.878841E-04    1.718703E-05
         4.012769E-07    6.525940E-09    7.683103E-11    6.284073E-13    1.393037E-15   -8.391300E-17   -3.786435E-18   -1.405088E-19   -4.541870E-21   -1.247031E-22
        -3.013532E-24
  13    -5.534554E-23   -2.070475E-21   -6.753789E-20   -1.868840E-18   -4.421082E-17   -2.382497E-16    2.128394E-13    3.266818E-11    3.362786E-09    2.546813E-07
         1.365492E-05    4.878841E-04    1.088812E-02    0.144194         1.10747         3.92065         1.10747        0.144194        1.088812E-02    4.878841E-04
         1.365492E-05    2.546813E-07    3.362786E-09    3.266818E-11    2.128408E-13   -2.381191E-16   -4.420404E-17   -1.868397E-18   -6.751692E-20   -2.069706E-21
        -5.532158E-23
  14    -7.276104E-22   -2.506492E-20   -7.539117E-19   -1.844050E-17   -3.459399E-16    3.915204E-14    8.326494E-12    1.039639E-09    9.686892E-08    6.560588E-06
         3.027598E-04    8.757767E-03    0.144194         1.25582         5.98101         13.9541         5.98101         1.25582        0.144194        8.757767E-03
         3.027598E-04    6.560588E-06    9.686892E-08    1.039639E-09    8.326496E-12    3.915254E-14   -3.459122E-16   -1.843924E-17   -7.538437E-19   -2.506218E-20
        -7.275178E-22
  15    -6.490183E-21   -1.983744E-19   -5.451339E-18   -1.207717E-16    2.012393E-15    1.094461E-12    1.693900E-10    1.933376E-08    1.656369E-06    1.007134E-04
         4.005224E-03    9.331554E-02     1.10747         5.98101         17.4165         24.6402         17.4165         5.98101         1.10747        9.331554E-02
         4.005224E-03    1.007134E-04    1.656369E-06    1.933376E-08    1.693900E-10    1.094461E-12    2.012457E-15   -1.207693E-16   -5.451224E-18   -1.983695E-19
        -6.490009E-21
  16    -3.910080E-20   -9.958477E-19   -2.227084E-17   -4.463293E-16    4.613105E-14    1.046144E-11    1.458829E-09    1.557429E-07    1.234443E-05    6.783981E-04
         2.350162E-02    0.448076         3.92065         13.9541         24.6402         32.3543         24.6402         13.9541         3.92065        0.448076    
         2.350162E-02    6.783981E-04    1.234443E-05    1.557429E-07    1.458829E-09    1.046144E-11    4.613105E-14   -4.463293E-16   -2.227084E-17   -9.958477E-19
        -3.910080E-20
  17    -6.490027E-21   -1.983700E-19   -5.451237E-18   -1.207696E-16    2.012450E-15    1.094461E-12    1.693900E-10    1.933376E-08    1.656369E-06    1.007134E-04
         4.005224E-03    9.331554E-02     1.10747         5.98101         17.4165         24.6402         17.4165         5.98101         1.10747        9.331554E-02
         4.005224E-03    1.007134E-04    1.656369E-06    1.933376E-08    1.693900E-10    1.094461E-12    2.012393E-15   -1.207717E-16   -5.451339E-18   -1.983744E-19
        -6.490183E-21
  18    -7.275339E-22   -2.506265E-20   -7.538549E-19   -1.843943E-17   -3.459160E-16    3.915249E-14    8.326496E-12    1.039639E-09    9.686892E-08    6.560588E-06
         3.027598E-04    8.757767E-03    0.144194         1.25582         5.98101         13.9541         5.98101         1.25582        0.144194        8.757767E-03
         3.027598E-04    6.560588E-06    9.686892E-08    1.039639E-09    8.326494E-12    3.915204E-14   -3.459399E-16   -1.844050E-17   -7.539117E-19   -2.506492E-20
        -7.276104E-22
  19    -5.532697E-23   -2.069875E-21   -6.752139E-20   -1.868487E-18   -4.420524E-17   -2.381355E-16    2.128407E-13    3.266818E-11    3.362786E-09    2.546813E-07
         1.365492E-05    4.878841E-04    1.088812E-02    0.144194         1.10747         3.92065         1.10747        0.144194        1.088812E-02    4.878841E-04
         1.365492E-05    2.546813E-07    3.362786E-09    3.266818E-11    2.128395E-13   -2.382497E-16   -4.421082E-17   -1.868840E-18   -6.753789E-20   -2.070475E-21
        -5.534554E-23
  20    -3.014412E-24   -1.247344E-22   -4.542842E-21   -1.405332E-19   -3.786878E-18   -8.391752E-17    1.393028E-15    6.284083E-13    7.683102E-11    6.525940E-09
         4.012769E-07    1.718703E-05    4.878841E-04    8.757767E-03    9.331554E-02    0.448076        9.331554E-02    8.757767E-03    4.878841E-04    1.718703E-05
         4.012769E-07    6.525940E-09    7.683100E-11    6.284085E-13    1.392811E-15   -8.393875E-17   -3.788566E-18   -1.406202E-19   -4.546199E-21   -1.248395E-22
        -3.017286E-24
  21    -1.151276E-25   -5.384770E-24   -2.240953E-22   -7.964217E-21   -2.407623E-19   -6.362021E-18   -1.211851E-16    4.971729E-15    1.161195E-12    1.160615E-10
         8.088299E-09    4.012769E-07    1.365492E-05    3.027598E-04    4.005224E-03    2.350162E-02    4.005224E-03    3.027598E-04    1.365492E-05    4.012769E-07
         8.088299E-09    1.160615E-10    1.161198E-12    4.971366E-15   -1.212490E-16   -6.367905E-18   -2.410856E-19   -7.977167E-21   -2.245084E-22   -5.395851E-24
        -1.153921E-25
  22    -3.118908E-27   -1.678815E-25   -8.100092E-24   -3.362584E-22   -1.178203E-20   -3.491917E-19   -8.878238E-18   -1.420691E-16    8.304886E-15    1.417564E-12
         1.160615E-10    6.525940E-09    2.546813E-07    6.560588E-06    1.007134E-04    6.783981E-04    1.007134E-04    6.560588E-06    2.546813E-07    6.525940E-09
         1.160615E-10    1.417570E-12    8.304396E-15   -1.421999E-16   -8.892020E-18   -3.500078E-19   -1.181636E-20   -3.373849E-22   -8.130536E-24   -1.685863E-25
        -3.133568E-27
  23    -6.077845E-29   -3.831758E-27   -2.171558E-25   -1.064122E-23   -4.402579E-22   -1.514292E-20   -4.345845E-19   -1.044263E-17   -1.476637E-16    8.304876E-15
         1.161193E-12    7.683103E-11    3.362786E-09    9.686892E-08    1.656369E-06    1.234443E-05    1.656369E-06    9.686892E-08    3.362786E-09    7.683100E-11
         1.161198E-12    8.304396E-15   -1.478361E-16   -1.046412E-17   -4.360092E-19   -1.520765E-20   -4.424899E-22   -1.070302E-23   -2.185873E-25   -3.860416E-27
        -6.129549E-29
  24    -8.516021E-31   -6.428827E-29   -4.352775E-27   -2.548512E-25   -1.259188E-23   -5.140928E-22   -1.712489E-20   -4.671306E-19   -1.044172E-17   -1.420575E-16
         4.971709E-15    6.284073E-13    3.266818E-11    1.039639E-09    1.933376E-08    1.557429E-07    1.933376E-08    1.039639E-09    3.266818E-11    6.284085E-13
         4.971366E-15   -1.421999E-16   -1.046412E-17   -4.688845E-19   -1.721449E-20   -5.174393E-22   -1.268909E-23   -2.571463E-25   -4.398355E-27   -6.507243E-29
        -8.637501E-31
  25    -8.378105E-33   -7.841749E-31   -6.515994E-29   -4.646834E-27   -2.778626E-25   -1.364382E-23   -5.407486E-22   -1.712190E-20   -4.344761E-19   -8.876461E-18
        -1.211747E-16    1.393037E-15    2.128408E-13    8.326496E-12    1.693900E-10    1.458829E-09    1.693900E-10    8.326494E-12    2.128395E-13    1.392811E-15
        -1.212490E-16   -8.892020E-18   -4.360092E-19   -1.721449E-20   -5.446434E-22   -1.376632E-23   -2.808856E-25   -4.707568E-27   -6.618454E-29   -7.991086E-31
        -8.573504E-33
  26    -5.393042E-35   -6.709717E-33   -7.183628E-31   -6.450463E-29   -4.768421E-27   -2.854569E-25   -1.364054E-23   -5.138905E-22   -1.513627E-20   -3.490655E-19
        -6.360793E-18   -8.391300E-17   -2.381191E-16    3.915254E-14    1.094461E-12    1.046144E-11    1.094461E-12    3.915204E-14   -2.382497E-16   -8.393875E-17
        -6.367905E-18   -3.500078E-19   -1.520765E-20   -5.174393E-22   -1.376632E-23   -2.888133E-25   -4.838593E-27   -6.569067E-29   -7.350406E-31   -6.910785E-33
        -5.609786E-35
  27    -1.782595E-37   -3.657978E-35   -5.621953E-33   -6.761479E-31   -6.403617E-29   -4.766898E-27   -2.777151E-25   -1.258385E-23   -4.399807E-22   -1.177605E-20
        -2.406885E-19   -3.786435E-18   -4.420404E-17   -3.459122E-16    2.012457E-15    4.613105E-14    2.012393E-15   -3.459399E-16   -4.421082E-17   -3.788566E-18
        -2.410856E-19   -1.181636E-20   -4.424899E-22   -1.268909E-23   -2.808856E-25   -4.838593E-27   -6.529233E-29   -6.936449E-31   -5.820872E-33   -3.848944E-35
        -1.945867E-37
  28     1.836437E-40   -8.545514E-38   -2.833892E-35   -5.236103E-33   -6.758376E-31   -6.445750E-29   -4.642765E-27   -2.546203E-25   -1.063246E-23   -3.360442E-22
        -7.961085E-21   -1.405088E-19   -1.868397E-18   -1.843924E-17   -1.207693E-16   -4.463293E-16   -1.207717E-16   -1.844050E-17   -1.868840E-18   -1.406202E-19
        -7.977167E-21   -3.373849E-22   -1.070302E-23   -2.571463E-25   -4.707568E-27   -6.569067E-29   -6.936449E-31   -5.434577E-33   -3.008078E-35   -9.796087E-38
         1.040656E-40
  29     4.174738E-42    3.287360E-40   -5.918146E-38   -2.831361E-35   -5.615489E-33   -7.174503E-31   -6.507585E-29   -4.347510E-27   -2.169326E-25   -8.093906E-24
        -2.239907E-22   -4.541870E-21   -6.751692E-20   -7.538437E-19   -5.451224E-18   -2.227084E-17   -5.451339E-18   -7.539117E-19   -6.753789E-20   -4.546199E-21
        -2.245084E-22   -8.130536E-24   -2.185873E-25   -4.398355E-27   -6.618454E-29   -7.350406E-31   -5.820872E-33   -3.008078E-35   -7.038356E-38    2.749371E-40
         3.949756E-42
  30     1.321647E-44    3.299007E-42    3.293986E-40   -8.511925E-38   -3.649400E-35   -6.696195E-33   -7.827616E-31   -6.418794E-29   -3.826947E-27   -1.677306E-25
        -5.381859E-24   -1.247031E-22   -2.069706E-21   -2.506218E-20   -1.983695E-19   -9.958477E-19   -1.983744E-19   -2.506492E-20   -2.070475E-21   -1.248395E-22
        -5.395851E-24   -1.685863E-25   -3.860416E-27   -6.507243E-29   -7.991086E-31   -6.910785E-33   -3.848944E-35   -9.796087E-38    2.749371E-40    3.156075E-42
         1.293335E-44
  31      0.00000        1.322046E-44    4.180244E-42    1.866817E-40   -1.773467E-37   -5.376112E-35   -8.357510E-33   -8.499196E-31   -6.068640E-29   -3.115630E-27
        -1.150559E-25   -3.013532E-24   -5.532158E-23   -7.275178E-22   -6.490009E-21   -3.910080E-20   -6.490183E-21   -7.276104E-22   -5.534554E-23   -3.017286E-24
        -1.153921E-25   -3.133568E-27   -6.129549E-29   -8.637501E-31   -8.573504E-33   -5.609786E-35   -1.945867E-37    1.040656E-40    3.949756E-42    1.293335E-44
          0.00000    

 CONCENTRATION WILL BE SAVED ON UNIT 1030 AT END OF TIME STEP   41, STRESS PERIOD    2


  MASS BUDGET FOR ENTIRE MODEL AT END OF TIME STEP   41, STRESS PERIOD   2
  ---------------------------------------------------------------------------------------------------

     CUMULATIVE MASS      M       RATES FOR THIS TIME STEP      M/T          PACKAGE NAME    
     ------------------                 ------------------------                     ----------------

           IN:                                      IN:
           ---                                      ---
     STORAGE-AQUEOUS =  5973598696.5228       STORAGE-AQUEOUS =     2795650.3588     MST                              
                 WEL =  7884000000.0000                   WEL =           0.0000     SSM_WEL-1                        
                 CHD =           0.0000                   CHD =           0.0000     SSM_CHD-1                        

            TOTAL IN = 13857598696.5229              TOTAL IN =     2795650.3588

          OUT:                                     OUT:
          ----                                     ----
     STORAGE-AQUEOUS =  7888660194.6886       STORAGE-AQUEOUS =         240.6880     MST                              
                 WEL =  5968938501.8343                   WEL =     2795409.6708     SSM_WEL-1                        
                 CHD =       7.5562E-18                   CHD =           0.0000     SSM_CHD-1                        

           TOTAL OUT = 13857598696.5229             TOTAL OUT =     2795650.3588

            IN - OUT =      -7.2479E-05              IN - OUT =      -7.3109E-08

 PERCENT DISCREPANCY =          -0.00     PERCENT DISCREPANCY =          -0.00




         TIME SUMMARY AT END OF TIME STEP   41 IN STRESS PERIOD    2
                    SECONDS     MINUTES      HOURS       DAYS        YEARS
                    -----------------------------------------------------------
   TIME STEP LENGTH 2.16991E+06  36165.      602.75      25.115     6.87602E-02
 STRESS PERIOD TIME 8.89662E+07 1.48277E+06  24713.      1029.7      2.8192    
         TOTAL TIME 1.67806E+08 2.79677E+06  46613.      1942.2      5.3175    


end timestep


start timestep kper="2" kstp="42" mode="normal"

 UBDSV1 SAVING  STORAGE-AQUEOUS ON UNIT   1029 AT TIME STEP     42, STRESS PERIOD      2
 UBDSV1 SAVING     FLOW-JA-FACE ON UNIT   1029 AT TIME STEP     42, STRESS PERIOD      2
 UBDSV06 SAVING  SOURCE-SINK MIX IN MODEL GWT_P06-MF6      PACKAGE GWT_P06-MF6     CONNECTED TO MODEL GWT_P06-MF6      PACKAGE SSM              ON UNIT   1029 AT TIME STEP     42, STRESS PERIOD      2
1
  CONCENTRATION IN LAYER   1 AT END OF TIME STEP  42 IN STRESS PERIOD    2
  ---------------------------------------------------------------------------

                1               2               3               4               5               6               7               8               9              10
               11              12              13              14              15              16              17              18              19              20
               21              22              23              24              25              26              27              28              29              30
               31
 ................................................................................................................................................................................................................................................................................................................................................................................................................................................................................................................
   1      0.00000        1.339194E-44    3.977936E-42    4.811175E-41   -2.165280E-37   -6.036312E-35   -9.100024E-33   -9.084583E-31   -6.399147E-29   -3.250037E-27
        -1.189793E-25   -3.095464E-24   -5.656109E-23   -7.410538E-22   -6.586077E-21   -3.942485E-20   -6.585919E-21   -7.409764E-22   -5.654226E-23   -3.092541E-24
        -1.187094E-25   -3.235008E-27   -6.345868E-29   -8.958725E-31   -8.896429E-33   -5.809132E-35   -1.993057E-37    1.326645E-40    4.219286E-42    1.370072E-44
          0.00000    
   2     1.339194E-44    3.196668E-42    2.490891E-40   -1.109610E-37   -4.144487E-35   -7.330737E-33   -8.401226E-31   -6.793740E-29   -4.005812E-27   -1.739527E-25
        -5.538739E-24   -1.275660E-22   -2.108272E-21   -2.543996E-20   -2.007620E-19   -1.001966E-18   -2.007576E-19   -2.543767E-20   -2.107665E-21   -1.274595E-22
        -5.527469E-24   -1.732328E-25   -3.976405E-27   -6.712888E-29   -8.246502E-31   -7.121392E-33   -3.944657E-35   -9.780305E-38    3.060763E-40    3.349657E-42
         1.370511E-44
   3     3.977936E-42    2.490891E-40   -8.078569E-38   -3.241159E-35   -6.170387E-33   -7.722248E-31   -6.907058E-29   -4.563818E-27   -2.256080E-25   -8.349651E-24
        -2.294905E-22   -4.628791E-21   -6.855904E-20   -7.624699E-19   -5.495643E-18   -2.224784E-17   -5.495539E-18   -7.624128E-19   -6.854242E-20   -4.625401E-21
        -2.290717E-22   -8.318667E-24   -2.241447E-25   -4.517021E-27   -6.801396E-29   -7.549510E-31   -5.963457E-33   -3.059112E-35   -6.901249E-38    3.067856E-40
         4.225265E-42
   4     4.811175E-41   -1.109610E-37   -3.241159E-35   -5.759126E-33   -7.283415E-31   -6.852170E-29   -4.883221E-27   -2.653909E-25   -1.099342E-23   -3.449923E-22
        -8.125218E-21   -1.427970E-19   -1.891521E-18   -1.846665E-17   -1.182293E-16   -4.085304E-16   -1.182271E-16   -1.846558E-17   -1.891167E-18   -1.427095E-19
        -8.112144E-21   -3.438500E-22   -1.093048E-23   -2.630437E-25   -4.820847E-27   -6.729865E-29   -7.102248E-31   -5.552732E-33   -3.056450E-35   -9.744676E-38
         1.359244E-40
   5    -2.165280E-37   -4.144487E-35   -6.170387E-33   -7.283415E-31   -6.809171E-29   -5.017907E-27   -2.898456E-25   -1.303336E-23   -4.525586E-22   -1.204093E-20
        -2.449517E-19   -3.832885E-18   -4.402138E-17   -3.106808E-16    2.843445E-15    5.329082E-14    2.843501E-15   -3.106567E-16   -4.401576E-17   -3.831195E-18
        -2.446267E-19   -1.200627E-20   -4.502945E-22   -1.293431E-23   -2.867530E-25   -4.945834E-27   -6.679638E-29   -7.099023E-31   -5.956700E-33   -3.935626E-35
        -1.983356E-37
   6    -6.036312E-35   -7.330737E-33   -7.722248E-31   -6.852170E-29   -5.017907E-27   -2.980035E-25   -1.413917E-23   -5.292551E-22   -1.550104E-20   -3.557310E-19
        -6.430958E-18   -8.187816E-17   -3.860981E-17    4.589417E-14    1.219836E-12    1.145715E-11    1.219837E-12    4.589461E-14   -3.849625E-17   -8.185690E-17
        -6.425072E-18   -3.549106E-19   -1.543565E-20   -5.258593E-22   -1.401435E-23   -2.945695E-25   -4.944265E-27   -6.724991E-29   -7.540023E-31   -7.107249E-33
        -5.791287E-35
   7    -9.100024E-33   -8.401226E-31   -6.907058E-29   -4.883221E-27   -2.898456E-25   -1.413917E-23   -5.570898E-22   -1.754873E-20   -4.431661E-19   -8.959153E-18
        -1.146134E-16    2.029482E-15    2.422921E-13    9.190835E-12    1.842151E-10    1.567607E-09    1.842151E-10    9.190837E-12    2.422933E-13    2.029697E-15
        -1.145498E-16   -8.945374E-18   -4.417338E-19   -1.745820E-20   -5.531372E-22   -1.401100E-23   -2.866019E-25   -4.816659E-27   -6.792701E-29   -8.231810E-31
        -8.874882E-33
   8    -9.084583E-31   -6.793740E-29   -4.563818E-27   -2.653909E-25   -1.303336E-23   -5.292551E-22   -1.754873E-20   -4.765773E-19   -1.052602E-17   -1.298745E-16
         6.300585E-15    7.075507E-13    3.587625E-11    1.124883E-09    2.065509E-08    1.644455E-07    2.065509E-08    1.124883E-09    3.587626E-11    7.075506E-13
         6.300940E-15   -1.297444E-16   -1.050454E-17   -4.748139E-19   -1.745518E-20   -5.256539E-22   -1.292613E-23   -2.628072E-25   -4.511604E-27   -6.702519E-29
        -8.941242E-31
   9    -6.399147E-29   -4.005812E-27   -2.256080E-25   -1.099342E-23   -4.525586E-22   -1.550104E-20   -4.431661E-19   -1.052602E-17   -1.328256E-16    1.020586E-14
         1.301108E-12    8.411407E-11    3.624536E-09    1.029563E-07    1.737984E-06    1.279995E-05    1.737984E-06    1.029563E-07    3.624536E-09    8.411409E-11
         1.301105E-12    1.020634E-14   -1.326541E-16   -1.050363E-17   -4.416247E-19   -1.542893E-20   -4.500131E-22   -1.092156E-23   -2.239163E-25   -3.971461E-27
        -6.336366E-29
  10    -3.250037E-27   -1.739527E-25   -8.349651E-24   -3.449923E-22   -1.204093E-20   -3.557310E-19   -8.959153E-18   -1.298745E-16    1.020586E-14    1.586125E-12
         1.268704E-10    7.016641E-09    2.696317E-07    6.845690E-06    1.037239E-04    6.904752E-04    1.037239E-04    6.845690E-06    2.696317E-07    7.016641E-09
         1.268704E-10    1.586119E-12    1.020633E-14   -1.297330E-16   -8.943601E-18   -3.547838E-19   -1.200022E-20   -3.436328E-22   -8.312369E-24   -1.730786E-25
        -3.231644E-27
  11    -1.189793E-25   -5.538739E-24   -2.294905E-22   -8.125218E-21   -2.449517E-19   -6.430958E-18   -1.146134E-16    6.300585E-15    1.301108E-12    1.268704E-10
         8.689127E-09    4.239337E-07    1.419311E-05    3.099856E-04    4.047321E-03    2.347896E-02    4.047321E-03    3.099856E-04    1.419311E-05    4.239337E-07
         8.689128E-09    1.268704E-10    1.301103E-12    6.300919E-15   -1.145394E-16   -6.423846E-18   -2.445526E-19   -8.108981E-21   -2.289657E-22   -5.524509E-24
        -1.186362E-25
  12    -3.095464E-24   -1.275660E-22   -4.628791E-21   -1.427970E-19   -3.832885E-18   -8.187816E-17    2.029482E-15    7.075507E-13    8.411407E-11    7.016641E-09
         4.239337E-07    1.783939E-05    4.977826E-04    8.797685E-03    9.255279E-02    0.439872        9.255279E-02    8.797685E-03    4.977826E-04    1.783939E-05
         4.239337E-07    7.016641E-09    8.411410E-11    7.075496E-13    2.029705E-15   -8.185240E-17   -3.830752E-18   -1.426850E-19   -4.624421E-21   -1.274278E-22
        -3.091647E-24
  13    -5.656109E-23   -2.108272E-21   -6.855904E-20   -1.891521E-18   -4.402138E-17   -3.860981E-17    2.422921E-13    3.587625E-11    3.624536E-09    2.696317E-07
         1.419311E-05    4.977826E-04    1.091198E-02    0.142276         1.08050         3.79746         1.08050        0.142276        1.091198E-02    4.977826E-04
         1.419311E-05    2.696317E-07    3.624536E-09    3.587626E-11    2.422934E-13   -3.848009E-17   -4.401456E-17   -1.891077E-18   -6.853792E-20   -2.107495E-21
        -5.653680E-23
  14    -7.410538E-22   -2.543996E-20   -7.624699E-19   -1.846665E-17   -3.106808E-16    4.589417E-14    9.190835E-12    1.124883E-09    1.029563E-07    6.845690E-06
         3.099856E-04    8.797685E-03    0.142276         1.22165         5.77562         13.4438         5.77562         1.22165        0.142276        8.797685E-03
         3.099856E-04    6.845690E-06    1.029563E-07    1.124883E-09    9.190837E-12    4.589466E-14   -3.106529E-16   -1.846538E-17   -7.624016E-19   -2.543720E-20
        -7.409601E-22
  15    -6.586077E-21   -2.007620E-19   -5.495643E-18   -1.182293E-16    2.843445E-15    1.219836E-12    1.842151E-10    2.065509E-08    1.737984E-06    1.037239E-04
         4.047321E-03    9.255279E-02     1.08050         5.77562         16.7897         23.7296         16.7897         5.77562         1.08050        9.255279E-02
         4.047321E-03    1.037239E-04    1.737984E-06    2.065509E-08    1.842151E-10    1.219837E-12    2.843509E-15   -1.182268E-16   -5.495527E-18   -2.007571E-19
        -6.585900E-21
  16    -3.942485E-20   -1.001966E-18   -2.224784E-17   -4.085304E-16    5.329082E-14    1.145715E-11    1.567607E-09    1.644455E-07    1.279995E-05    6.904752E-04
         2.347896E-02    0.439872         3.79746         13.4438         23.7296         31.1613         23.7296         13.4438         3.79746        0.439872    
         2.347896E-02    6.904752E-04    1.279995E-05    1.644455E-07    1.567607E-09    1.145715E-11    5.329082E-14   -4.085304E-16   -2.224784E-17   -1.001966E-18
        -3.942485E-20
  17    -6.585919E-21   -2.007576E-19   -5.495539E-18   -1.182271E-16    2.843501E-15    1.219837E-12    1.842151E-10    2.065509E-08    1.737984E-06    1.037239E-04
         4.047321E-03    9.255279E-02     1.08050         5.77562         16.7897         23.7296         16.7897         5.77562         1.08050        9.255279E-02
         4.047321E-03    1.037239E-04    1.737984E-06    2.065509E-08    1.842151E-10    1.219836E-12    2.843445E-15   -1.182293E-16   -5.495643E-18   -2.007620E-19
        -6.586077E-21
  18    -7.409764E-22   -2.543767E-20   -7.624128E-19   -1.846558E-17   -3.106567E-16    4.589461E-14    9.190837E-12    1.124883E-09    1.029563E-07    6.845690E-06
         3.099856E-04    8.797685E-03    0.142276         1.22165         5.77562         13.4438         5.77562         1.22165        0.142276        8.797685E-03
         3.099856E-04    6.845690E-06    1.029563E-07    1.124883E-09    9.190835E-12    4.589417E-14   -3.106807E-16   -1.846664E-17   -7.624699E-19   -2.543996E-20
        -7.410538E-22
  19    -5.654226E-23   -2.107665E-21   -6.854242E-20   -1.891167E-18   -4.401576E-17   -3.849625E-17    2.422933E-13    3.587626E-11    3.624536E-09    2.696317E-07
         1.419311E-05    4.977826E-04    1.091198E-02    0.142276         1.08050         3.79746         1.08050        0.142276        1.091198E-02    4.977826E-04
         1.419311E-05    2.696317E-07    3.624536E-09    3.587625E-11    2.422921E-13   -3.860979E-17   -4.402138E-17   -1.891521E-18   -6.855904E-20   -2.108272E-21
        -5.656109E-23
  20    -3.092541E-24   -1.274595E-22   -4.625401E-21   -1.427095E-19   -3.831195E-18   -8.185690E-17    2.029697E-15    7.075506E-13    8.411409E-11    7.016641E-09
         4.239337E-07    1.783939E-05    4.977826E-04    8.797685E-03    9.255279E-02    0.439872        9.255279E-02    8.797685E-03    4.977826E-04    1.783939E-05
         4.239337E-07    7.016641E-09    8.411407E-11    7.075507E-13    2.029482E-15   -8.187816E-17   -3.832885E-18   -1.427970E-19   -4.628791E-21   -1.275660E-22
        -3.095464E-24
  21    -1.187094E-25   -5.527469E-24   -2.290717E-22   -8.112144E-21   -2.446267E-19   -6.425072E-18   -1.145498E-16    6.300940E-15    1.301105E-12    1.268704E-10
         8.689128E-09    4.239337E-07    1.419311E-05    3.099856E-04    4.047321E-03    2.347896E-02    4.047321E-03    3.099856E-04    1.419311E-05    4.239337E-07
         8.689127E-09    1.268704E-10    1.301108E-12    6.300585E-15   -1.146134E-16   -6.430958E-18   -2.449517E-19   -8.125218E-21   -2.294905E-22   -5.538739E-24
        -1.189793E-25
  22    -3.235008E-27   -1.732328E-25   -8.318667E-24   -3.438500E-22   -1.200627E-20   -3.549106E-19   -8.945374E-18   -1.297444E-16    1.020634E-14    1.586119E-12
         1.268704E-10    7.016641E-09    2.696317E-07    6.845690E-06    1.037239E-04    6.904752E-04    1.037239E-04    6.845690E-06    2.696317E-07    7.016641E-09
         1.268704E-10    1.586125E-12    1.020586E-14   -1.298745E-16   -8.959153E-18   -3.557310E-19   -1.204093E-20   -3.449923E-22   -8.349651E-24   -1.739527E-25
        -3.250037E-27
  23    -6.345868E-29   -3.976405E-27   -2.241447E-25   -1.093048E-23   -4.502945E-22   -1.543565E-20   -4.417338E-19   -1.050454E-17   -1.326541E-16    1.020633E-14
         1.301103E-12    8.411410E-11    3.624536E-09    1.029563E-07    1.737984E-06    1.279995E-05    1.737984E-06    1.029563E-07    3.624536E-09    8.411407E-11
         1.301108E-12    1.020586E-14   -1.328256E-16   -1.052602E-17   -4.431661E-19   -1.550104E-20   -4.525586E-22   -1.099342E-23   -2.256080E-25   -4.005812E-27
        -6.399147E-29
  24    -8.958725E-31   -6.712888E-29   -4.517021E-27   -2.630437E-25   -1.293431E-23   -5.258593E-22   -1.745820E-20   -4.748139E-19   -1.050363E-17   -1.297330E-16
         6.300919E-15    7.075496E-13    3.587626E-11    1.124883E-09    2.065509E-08    1.644455E-07    2.065509E-08    1.124883E-09    3.587625E-11    7.075507E-13
         6.300585E-15   -1.298745E-16   -1.052602E-17   -4.765773E-19   -1.754873E-20   -5.292551E-22   -1.303336E-23   -2.653909E-25   -4.563818E-27   -6.793740E-29
        -9.084583E-31
  25    -8.896429E-33   -8.246502E-31   -6.801396E-29   -4.820847E-27   -2.867530E-25   -1.401435E-23   -5.531372E-22   -1.745518E-20   -4.416247E-19   -8.943601E-18
        -1.145394E-16    2.029705E-15    2.422934E-13    9.190837E-12    1.842151E-10    1.567607E-09    1.842151E-10    9.190835E-12    2.422921E-13    2.029482E-15
        -1.146134E-16   -8.959153E-18   -4.431661E-19   -1.754873E-20   -5.570898E-22   -1.413917E-23   -2.898456E-25   -4.883221E-27   -6.907058E-29   -8.401226E-31
        -9.100024E-33
  26    -5.809132E-35   -7.121392E-33   -7.549510E-31   -6.729865E-29   -4.945834E-27   -2.945695E-25   -1.401100E-23   -5.256539E-22   -1.542893E-20   -3.547838E-19
        -6.423846E-18   -8.185240E-17   -3.848009E-17    4.589466E-14    1.219837E-12    1.145715E-11    1.219836E-12    4.589417E-14   -3.860979E-17   -8.187816E-17
        -6.430958E-18   -3.557310E-19   -1.550104E-20   -5.292551E-22   -1.413917E-23   -2.980035E-25   -5.017907E-27   -6.852170E-29   -7.722248E-31   -7.330737E-33
        -6.036312E-35
  27    -1.993057E-37   -3.944657E-35   -5.963457E-33   -7.102248E-31   -6.679638E-29   -4.944265E-27   -2.866019E-25   -1.292613E-23   -4.500131E-22   -1.200022E-20
        -2.445526E-19   -3.830752E-18   -4.401456E-17   -3.106529E-16    2.843509E-15    5.329082E-14    2.843445E-15   -3.106807E-16   -4.402138E-17   -3.832885E-18
        -2.449517E-19   -1.204093E-20   -4.525586E-22   -1.303336E-23   -2.898456E-25   -5.017907E-27   -6.809171E-29   -7.283415E-31   -6.170387E-33   -4.144487E-35
        -2.165280E-37
  28     1.326645E-40   -9.780305E-38   -3.059112E-35   -5.552732E-33   -7.099023E-31   -6.724991E-29   -4.816659E-27   -2.628072E-25   -1.092156E-23   -3.436328E-22
        -8.108981E-21   -1.426850E-19   -1.891077E-18   -1.846538E-17   -1.182268E-16   -4.085304E-16   -1.182293E-16   -1.846664E-17   -1.891521E-18   -1.427970E-19
        -8.125218E-21   -3.449923E-22   -1.099342E-23   -2.653909E-25   -4.883221E-27   -6.852170E-29   -7.283415E-31   -5.759126E-33   -3.241159E-35   -1.109610E-37
         4.811177E-41
  29     4.219286E-42    3.060763E-40   -6.901249E-38   -3.056450E-35   -5.956700E-33   -7.540024E-31   -6.792701E-29   -4.511604E-27   -2.239163E-25   -8.312369E-24
        -2.289657E-22   -4.624421E-21   -6.853792E-20   -7.624016E-19   -5.495527E-18   -2.224784E-17   -5.495643E-18   -7.624699E-19   -6.855904E-20   -4.628791E-21
        -2.294905E-22   -8.349651E-24   -2.256080E-25   -4.563818E-27   -6.907058E-29   -7.722248E-31   -6.170387E-33   -3.241159E-35   -8.078569E-38    2.490891E-40
         3.977936E-42
  30     1.370072E-44    3.349657E-42    3.067856E-40   -9.744676E-38   -3.935626E-35   -7.107249E-33   -8.231810E-31   -6.702519E-29   -3.971461E-27   -1.730786E-25
        -5.524509E-24   -1.274278E-22   -2.107495E-21   -2.543720E-20   -2.007571E-19   -1.001966E-18   -2.007620E-19   -2.543996E-20   -2.108272E-21   -1.275660E-22
        -5.538739E-24   -1.739527E-25   -4.005812E-27   -6.793740E-29   -8.401226E-31   -7.330737E-33   -4.144487E-35   -1.109610E-37    2.490891E-40    3.196668E-42
         1.339194E-44
  31      0.00000        1.370511E-44    4.225265E-42    1.359244E-40   -1.983356E-37   -5.791287E-35   -8.874882E-33   -8.941242E-31   -6.336366E-29   -3.231644E-27
        -1.186362E-25   -3.091647E-24   -5.653680E-23   -7.409601E-22   -6.585900E-21   -3.942485E-20   -6.586077E-21   -7.410538E-22   -5.656109E-23   -3.095464E-24
        -1.189793E-25   -3.250037E-27   -6.399147E-29   -9.084583E-31   -9.100024E-33   -6.036312E-35   -2.165280E-37    4.811177E-41    3.977936E-42    1.339194E-44
          0.00000    

 CONCENTRATION WILL BE SAVED ON UNIT 1030 AT END OF TIME STEP   42, STRESS PERIOD    2


  MASS BUDGET FOR ENTIRE MODEL AT END OF TIME STEP   42, STRESS PERIOD   2
  ---------------------------------------------------------------------------------------------------

     CUMULATIVE MASS      M       RATES FOR THIS TIME STEP      M/T          PACKAGE NAME    
     ------------------                 ------------------------                     ----------------

           IN:                                      IN:
           ---                                      ---
     STORAGE-AQUEOUS =  6041221402.4220       STORAGE-AQUEOUS =     2692557.0568     MST                              
                 WEL =  7884000000.0000                   WEL =           0.0000     SSM_WEL-1                        
                 CHD =           0.0000                   CHD =           0.0000     SSM_CHD-1                        

            TOTAL IN = 13925221402.4220              TOTAL IN =     2692557.0568

          OUT:                                     OUT:
          ----                                     ----
     STORAGE-AQUEOUS =  7888665711.8378       STORAGE-AQUEOUS =         219.6783     MST                              
                 WEL =  6036555690.5843                   WEL =     2692337.3785     SSM_WEL-1                        
                 CHD =       7.5562E-18                   CHD =           0.0000     SSM_CHD-1                        

           TOTAL OUT = 13925221402.4221             TOTAL OUT =     2692557.0568

            IN - OUT =      -7.4387E-05              IN - OUT =      -8.2422E-08

 PERCENT DISCREPANCY =          -0.00     PERCENT DISCREPANCY =          -0.00




         TIME SUMMARY AT END OF TIME STEP   42 IN STRESS PERIOD    2
                    SECONDS     MINUTES      HOURS       DAYS        YEARS
                    -----------------------------------------------------------
   TIME STEP LENGTH 2.16991E+06  36165.      602.75      25.115     6.87602E-02
 STRESS PERIOD TIME 9.11361E+07 1.51894E+06  25316.      1054.8      2.8879    
         TOTAL TIME 1.69976E+08 2.83294E+06  47216.      1967.3      5.3862    


end timestep


start timestep kper="2" kstp="43" mode="normal"

 UBDSV1 SAVING  STORAGE-AQUEOUS ON UNIT   1029 AT TIME STEP     43, STRESS PERIOD      2
 UBDSV1 SAVING     FLOW-JA-FACE ON UNIT   1029 AT TIME STEP     43, STRESS PERIOD      2
 UBDSV06 SAVING  SOURCE-SINK MIX IN MODEL GWT_P06-MF6      PACKAGE GWT_P06-MF6     CONNECTED TO MODEL GWT_P06-MF6      PACKAGE SSM              ON UNIT   1029 AT TIME STEP     43, STRESS PERIOD      2
1
  CONCENTRATION IN LAYER   1 AT END OF TIME STEP  43 IN STRESS PERIOD    2
  ---------------------------------------------------------------------------

                1               2               3               4               5               6               7               8               9              10
               11              12              13              14              15              16              17              18              19              20
               21              22              23              24              25              26              27              28              29              30
               31
 ................................................................................................................................................................................................................................................................................................................................................................................................................................................................................................................
   1      0.00000        1.385359E-44    3.995226E-42   -1.410885E-41   -2.400999E-37   -6.488381E-35   -9.653146E-33   -9.550903E-31   -6.678571E-29   -3.370059E-27
        -1.226570E-25   -3.175266E-24   -5.779745E-23   -7.546789E-22   -6.682905E-21   -3.975029E-20   -6.682745E-21   -7.546006E-22   -5.777836E-23   -3.172295E-24
        -1.223816E-25   -3.354652E-27   -6.623680E-29   -9.420534E-31   -9.441064E-33   -6.250338E-35   -2.219406E-37    7.568251E-41    4.253936E-42    1.418983E-44
          0.00000    
   2     1.385359E-44    3.232015E-42    2.199679E-40   -1.249324E-37   -4.457511E-35   -7.771666E-33   -8.828942E-31   -7.090738E-29   -4.155707E-27   -1.794567E-25
        -5.684608E-24   -1.303388E-22   -2.146588E-21   -2.581860E-20   -2.031606E-19   -1.008012E-18   -2.031562E-19   -2.581629E-20   -2.145976E-21   -1.302308E-22
        -5.673147E-24   -1.787215E-25   -4.125535E-27   -7.007388E-29   -8.668666E-31   -7.553752E-33   -4.248460E-35   -1.110928E-37    2.803060E-40    3.395652E-42
         1.419467E-44
   3     3.995226E-42    2.199679E-40   -9.196750E-38   -3.487893E-35   -6.537141E-33   -8.109868E-31   -7.206202E-29   -4.734424E-27   -2.328107E-25   -8.573408E-24
        -2.345580E-22   -4.712552E-21   -6.959030E-20   -7.709880E-19   -5.537659E-18   -2.219978E-17   -5.537555E-18   -7.709306E-19   -6.957357E-20   -4.709129E-21
        -2.341336E-22   -8.541877E-24   -2.313152E-25   -4.686381E-27   -7.097254E-29   -7.930988E-31   -6.321919E-33   -3.297674E-35   -7.959771E-38    2.810650E-40
         4.260423E-42
   4    -1.410885E-41   -1.249324E-37   -3.487893E-35   -6.099590E-33   -7.644986E-31   -7.145543E-29   -5.064319E-27   -2.738502E-25   -1.129005E-23   -3.527334E-22
        -8.275429E-21   -1.449938E-19   -1.913807E-18   -1.846621E-17   -1.150937E-16   -3.659950E-16   -1.150915E-16   -1.846514E-17   -1.913453E-18   -1.449057E-19
        -8.262229E-21   -3.515754E-22   -1.122597E-23   -2.714500E-25   -5.000268E-27   -7.019441E-29   -7.457433E-31   -5.884998E-33   -3.294875E-35   -1.107151E-37
         7.917798E-41
   5    -2.400999E-37   -4.457511E-35   -6.537141E-33   -7.644986E-31   -7.099233E-29   -5.202762E-27   -2.990389E-25   -1.338507E-23   -4.628082E-22   -1.226884E-20
        -2.488423E-19   -3.875020E-18   -4.366638E-17   -2.702170E-16    3.759280E-15    6.107556E-14    3.759336E-15   -2.701928E-16   -4.366073E-17   -3.873327E-18
        -2.485156E-19   -1.223384E-20   -4.605117E-22   -1.328417E-23   -2.958756E-25   -5.128745E-27   -6.965679E-29   -7.454082E-31   -6.314858E-33   -4.238956E-35
        -2.209102E-37
   6    -6.488381E-35   -7.771666E-33   -8.109868E-31   -7.145543E-29   -5.202762E-27   -3.074329E-25   -1.452012E-23   -5.412856E-22   -1.579881E-20   -3.614678E-19
        -6.487004E-18   -7.923343E-17    1.846159E-16    5.328283E-14    1.355502E-12    1.252186E-11    1.355503E-12    5.328326E-14    1.847288E-16   -7.921214E-17
        -6.481117E-18   -3.606431E-19   -1.573276E-20   -5.378401E-22   -1.439293E-23   -3.039198E-25   -5.127130E-27   -7.014401E-29   -7.921129E-31   -7.538964E-33
        -6.231535E-35
   7    -9.653146E-33   -8.828942E-31   -7.206202E-29   -5.064319E-27   -2.990389E-25   -1.452012E-23   -5.697631E-22   -1.788792E-20   -4.503149E-19   -9.011980E-18
        -1.066131E-16    2.737248E-15    2.744453E-13    1.012168E-11    1.999756E-10    1.681821E-09    1.999756E-10    1.012168E-11    2.744465E-13    2.737461E-15
        -1.065497E-16   -8.998207E-18   -4.488749E-19   -1.779645E-20   -5.657522E-22   -1.438952E-23   -2.957207E-25   -4.995959E-27   -7.088265E-29   -8.653397E-31
        -9.418528E-33
   8    -9.550903E-31   -7.090738E-29   -4.734424E-27   -2.738502E-25   -1.338507E-23   -5.412856E-22   -1.788792E-20   -4.842506E-19   -1.056780E-17   -1.153125E-16
         7.773509E-15    7.937053E-13    3.931738E-11    1.215014E-09    2.203310E-08    1.734022E-07    2.203310E-08    1.215014E-09    3.931739E-11    7.937052E-13
         7.773857E-15   -1.151830E-16   -1.054633E-17   -4.824778E-19   -1.779340E-20   -5.376316E-22   -1.327583E-23   -2.712077E-25   -4.680810E-27   -6.996675E-29
        -9.402374E-31
   9    -6.678571E-29   -4.155707E-27   -2.328107E-25   -1.129005E-23   -4.628082E-22   -1.579881E-20   -4.503149E-19   -1.056780E-17   -1.151844E-16    1.230979E-14
         1.453147E-12    9.190360E-11    3.900055E-09    1.092647E-07    1.821307E-06    1.325817E-05    1.821307E-06    1.092647E-07    3.900055E-09    9.190362E-11
         1.453144E-12    1.231026E-14   -1.150139E-16   -1.054542E-17   -4.487653E-19   -1.572596E-20   -4.602261E-22   -1.121688E-23   -2.310814E-25   -4.120456E-27
        -6.613872E-29
  10    -3.370059E-27   -1.794567E-25   -8.573408E-24   -3.527334E-22   -1.226884E-20   -3.614678E-19   -9.011980E-18   -1.153125E-16    1.230979E-14    1.769183E-12
         1.384132E-10    7.531614E-09    2.850465E-07    7.134503E-06    1.067193E-04    7.022297E-04    1.067193E-04    7.134503E-06    2.850465E-07    7.531614E-09
         1.384133E-10    1.769178E-12    1.231025E-14   -1.151717E-16   -8.996436E-18   -3.605156E-19   -1.222774E-20   -3.513551E-22   -8.535465E-24   -1.785638E-25
        -3.351201E-27
  11    -1.226570E-25   -5.684608E-24   -2.345580E-22   -8.275429E-21   -2.488423E-19   -6.487004E-18   -1.066131E-16    7.773509E-15    1.453147E-12    1.384132E-10
         9.319014E-09    4.472269E-07    1.473501E-05    3.170898E-04    4.087089E-03    2.344574E-02    4.087089E-03    3.170898E-04    1.473501E-05    4.472269E-07
         9.319014E-09    1.384133E-10    1.453143E-12    7.773835E-15   -1.065394E-16   -6.479892E-18   -2.484411E-19   -8.259037E-21   -2.340262E-22   -5.670136E-24
        -1.223069E-25
  12    -3.175266E-24   -1.303388E-22   -4.712552E-21   -1.449938E-19   -3.875020E-18   -7.923343E-17    2.737248E-15    7.937053E-13    9.190360E-11    7.531614E-09
         4.472269E-07    1.849469E-05    5.074245E-04    8.832333E-03    9.176335E-02    0.431756        9.176335E-02    8.832333E-03    5.074245E-04    1.849469E-05
         4.472269E-07    7.531614E-09    9.190363E-11    7.937042E-13    2.737467E-15   -7.920766E-17   -3.872884E-18   -1.448812E-19   -4.708140E-21   -1.301987E-22
        -3.171387E-24
  13    -5.779745E-23   -2.146588E-21   -6.959030E-20   -1.913807E-18   -4.366638E-17    1.846159E-16    2.744453E-13    3.931738E-11    3.900055E-09    2.850465E-07
         1.473501E-05    5.074245E-04    1.092936E-02    0.140341         1.05412         3.67841         1.05412        0.140341        1.092936E-02    5.074245E-04
         1.473501E-05    2.850465E-07    3.900055E-09    3.931739E-11    2.744466E-13    1.847448E-16   -4.365952E-17   -1.913362E-18   -6.956904E-20   -2.145804E-21
        -5.777283E-23
  14    -7.546789E-22   -2.581860E-20   -7.709880E-19   -1.846621E-17   -2.702170E-16    5.328283E-14    1.012168E-11    1.215014E-09    1.092647E-07    7.134503E-06
         3.170898E-04    8.832333E-03    0.140341         1.18838         5.57789         12.9533         5.57789         1.18838        0.140341        8.832333E-03
         3.170898E-04    7.134503E-06    1.092647E-07    1.215014E-09    1.012168E-11    5.328332E-14   -2.701890E-16   -1.846495E-17   -7.709193E-19   -2.581582E-20
        -7.545842E-22
  15    -6.682905E-21   -2.031606E-19   -5.537659E-18   -1.150937E-16    3.759280E-15    1.355502E-12    1.999756E-10    2.203310E-08    1.821307E-06    1.067193E-04
         4.087089E-03    9.176335E-02     1.05412         5.57789         16.1862         22.8536         16.1862         5.57789         1.05412        9.176335E-02
         4.087089E-03    1.067193E-04    1.821307E-06    2.203310E-08    1.999756E-10    1.355503E-12    3.759344E-15   -1.150912E-16   -5.537542E-18   -2.031557E-19
        -6.682726E-21
  16    -3.975029E-20   -1.008012E-18   -2.219978E-17   -3.659950E-16    6.107556E-14    1.252186E-11    1.681821E-09    1.734022E-07    1.325817E-05    7.022297E-04
         2.344574E-02    0.431756         3.67841         12.9533         22.8536         30.0118         22.8536         12.9533         3.67841        0.431756    
         2.344574E-02    7.022297E-04    1.325817E-05    1.734022E-07    1.681821E-09    1.252186E-11    6.107556E-14   -3.659950E-16   -2.219978E-17   -1.008012E-18
        -3.975029E-20
  17    -6.682745E-21   -2.031562E-19   -5.537555E-18   -1.150915E-16    3.759336E-15    1.355503E-12    1.999756E-10    2.203310E-08    1.821307E-06    1.067193E-04
         4.087089E-03    9.176335E-02     1.05412         5.57789         16.1862         22.8536         16.1862         5.57789         1.05412        9.176335E-02
         4.087089E-03    1.067193E-04    1.821307E-06    2.203310E-08    1.999756E-10    1.355502E-12    3.759280E-15   -1.150937E-16   -5.537659E-18   -2.031606E-19
        -6.682904E-21
  18    -7.546006E-22   -2.581629E-20   -7.709306E-19   -1.846514E-17   -2.701928E-16    5.328326E-14    1.012168E-11    1.215014E-09    1.092647E-07    7.134503E-06
         3.170898E-04    8.832333E-03    0.140341         1.18838         5.57789         12.9533         5.57789         1.18838        0.140341        8.832333E-03
         3.170898E-04    7.134503E-06    1.092647E-07    1.215014E-09    1.012168E-11    5.328283E-14   -2.702170E-16   -1.846621E-17   -7.709880E-19   -2.581860E-20
        -7.546789E-22
  19    -5.777836E-23   -2.145976E-21   -6.957357E-20   -1.913453E-18   -4.366073E-17    1.847288E-16    2.744465E-13    3.931739E-11    3.900055E-09    2.850465E-07
         1.473501E-05    5.074245E-04    1.092936E-02    0.140341         1.05412         3.67841         1.05412        0.140341        1.092936E-02    5.074245E-04
         1.473501E-05    2.850465E-07    3.900055E-09    3.931738E-11    2.744453E-13    1.846159E-16   -4.366638E-17   -1.913807E-18   -6.959030E-20   -2.146588E-21
        -5.779745E-23
  20    -3.172295E-24   -1.302308E-22   -4.709129E-21   -1.449057E-19   -3.873327E-18   -7.921214E-17    2.737461E-15    7.937052E-13    9.190362E-11    7.531614E-09
         4.472269E-07    1.849469E-05    5.074245E-04    8.832333E-03    9.176335E-02    0.431756        9.176335E-02    8.832333E-03    5.074245E-04    1.849469E-05
         4.472269E-07    7.531614E-09    9.190360E-11    7.937053E-13    2.737248E-15   -7.923343E-17   -3.875020E-18   -1.449938E-19   -4.712552E-21   -1.303388E-22
        -3.175266E-24
  21    -1.223816E-25   -5.673147E-24   -2.341336E-22   -8.262229E-21   -2.485156E-19   -6.481117E-18   -1.065497E-16    7.773857E-15    1.453144E-12    1.384133E-10
         9.319014E-09    4.472269E-07    1.473501E-05    3.170898E-04    4.087089E-03    2.344574E-02    4.087089E-03    3.170898E-04    1.473501E-05    4.472269E-07
         9.319014E-09    1.384132E-10    1.453147E-12    7.773509E-15   -1.066131E-16   -6.487004E-18   -2.488423E-19   -8.275429E-21   -2.345580E-22   -5.684608E-24
        -1.226570E-25
  22    -3.354652E-27   -1.787215E-25   -8.541877E-24   -3.515754E-22   -1.223384E-20   -3.606431E-19   -8.998207E-18   -1.151830E-16    1.231026E-14    1.769178E-12
         1.384133E-10    7.531614E-09    2.850465E-07    7.134503E-06    1.067193E-04    7.022297E-04    1.067193E-04    7.134503E-06    2.850465E-07    7.531614E-09
         1.384132E-10    1.769183E-12    1.230979E-14   -1.153125E-16   -9.011980E-18   -3.614678E-19   -1.226884E-20   -3.527334E-22   -8.573408E-24   -1.794567E-25
        -3.370059E-27
  23    -6.623680E-29   -4.125535E-27   -2.313152E-25   -1.122597E-23   -4.605117E-22   -1.573276E-20   -4.488749E-19   -1.054633E-17   -1.150139E-16    1.231025E-14
         1.453143E-12    9.190363E-11    3.900055E-09    1.092647E-07    1.821307E-06    1.325817E-05    1.821307E-06    1.092647E-07    3.900055E-09    9.190360E-11
         1.453147E-12    1.230979E-14   -1.151844E-16   -1.056780E-17   -4.503149E-19   -1.579881E-20   -4.628082E-22   -1.129005E-23   -2.328107E-25   -4.155707E-27
        -6.678571E-29
  24    -9.420534E-31   -7.007388E-29   -4.686381E-27   -2.714500E-25   -1.328417E-23   -5.378401E-22   -1.779645E-20   -4.824778E-19   -1.054542E-17   -1.151717E-16
         7.773835E-15    7.937042E-13    3.931739E-11    1.215014E-09    2.203310E-08    1.734022E-07    2.203310E-08    1.215014E-09    3.931738E-11    7.937053E-13
         7.773509E-15   -1.153125E-16   -1.056780E-17   -4.842506E-19   -1.788792E-20   -5.412856E-22   -1.338507E-23   -2.738502E-25   -4.734424E-27   -7.090738E-29
        -9.550903E-31
  25    -9.441064E-33   -8.668666E-31   -7.097254E-29   -5.000268E-27   -2.958756E-25   -1.439293E-23   -5.657522E-22   -1.779340E-20   -4.487653E-19   -8.996436E-18
        -1.065394E-16    2.737467E-15    2.744466E-13    1.012168E-11    1.999756E-10    1.681821E-09    1.999756E-10    1.012168E-11    2.744453E-13    2.737248E-15
        -1.066131E-16   -9.011980E-18   -4.503149E-19   -1.788792E-20   -5.697631E-22   -1.452012E-23   -2.990389E-25   -5.064319E-27   -7.206202E-29   -8.828942E-31
        -9.653146E-33
  26    -6.250338E-35   -7.553752E-33   -7.930988E-31   -7.019441E-29   -5.128745E-27   -3.039198E-25   -1.438952E-23   -5.376316E-22   -1.572596E-20   -3.605156E-19
        -6.479892E-18   -7.920766E-17    1.847448E-16    5.328332E-14    1.355503E-12    1.252186E-11    1.355502E-12    5.328283E-14    1.846159E-16   -7.923343E-17
        -6.487004E-18   -3.614678E-19   -1.579881E-20   -5.412856E-22   -1.452012E-23   -3.074329E-25   -5.202762E-27   -7.145543E-29   -8.109868E-31   -7.771666E-33
        -6.488381E-35
  27    -2.219406E-37   -4.248460E-35   -6.321919E-33   -7.457433E-31   -6.965679E-29   -5.127130E-27   -2.957207E-25   -1.327583E-23   -4.602261E-22   -1.222774E-20
        -2.484411E-19   -3.872884E-18   -4.365952E-17   -2.701890E-16    3.759344E-15    6.107556E-14    3.759280E-15   -2.702170E-16   -4.366638E-17   -3.875020E-18
        -2.488423E-19   -1.226884E-20   -4.628082E-22   -1.338507E-23   -2.990389E-25   -5.202762E-27   -7.099233E-29   -7.644986E-31   -6.537141E-33   -4.457511E-35
        -2.400999E-37
  28     7.568251E-41   -1.110928E-37   -3.297674E-35   -5.884998E-33   -7.454082E-31   -7.014401E-29   -4.995959E-27   -2.712077E-25   -1.121688E-23   -3.513551E-22
        -8.259037E-21   -1.448812E-19   -1.913362E-18   -1.846495E-17   -1.150912E-16   -3.659950E-16   -1.150937E-16   -1.846621E-17   -1.913807E-18   -1.449938E-19
        -8.275429E-21   -3.527334E-22   -1.129005E-23   -2.738502E-25   -5.064319E-27   -7.145543E-29   -7.644986E-31   -6.099590E-33   -3.487893E-35   -1.249324E-37
        -1.410883E-41
  29     4.253936E-42    2.803060E-40   -7.959771E-38   -3.294875E-35   -6.314858E-33   -7.921129E-31   -7.088265E-29   -4.680810E-27   -2.310814E-25   -8.535465E-24
        -2.340262E-22   -4.708140E-21   -6.956904E-20   -7.709193E-19   -5.537542E-18   -2.219978E-17   -5.537659E-18   -7.709880E-19   -6.959030E-20   -4.712552E-21
        -2.345580E-22   -8.573408E-24   -2.328107E-25   -4.734424E-27   -7.206202E-29   -8.109868E-31   -6.537141E-33   -3.487893E-35   -9.196750E-38    2.199679E-40
         3.995226E-42
  30     1.418983E-44    3.395652E-42    2.810650E-40   -1.107151E-37   -4.238956E-35   -7.538964E-33   -8.653397E-31   -6.996675E-29   -4.120456E-27   -1.785638E-25
        -5.670136E-24   -1.301987E-22   -2.145804E-21   -2.581582E-20   -2.031557E-19   -1.008012E-18   -2.031606E-19   -2.581860E-20   -2.146588E-21   -1.303388E-22
        -5.684608E-24   -1.794567E-25   -4.155707E-27   -7.090738E-29   -8.828942E-31   -7.771666E-33   -4.457511E-35   -1.249324E-37    2.199679E-40    3.232015E-42
         1.385359E-44
  31      0.00000        1.419467E-44    4.260423E-42    7.917798E-41   -2.209102E-37   -6.231535E-35   -9.418528E-33   -9.402374E-31   -6.613872E-29   -3.351201E-27
        -1.223069E-25   -3.171387E-24   -5.777283E-23   -7.545842E-22   -6.682726E-21   -3.975029E-20   -6.682904E-21   -7.546789E-22   -5.779745E-23   -3.175266E-24
        -1.226570E-25   -3.370059E-27   -6.678571E-29   -9.550903E-31   -9.653146E-33   -6.488381E-35   -2.400999E-37   -1.410883E-41    3.995226E-42    1.385359E-44
          0.00000    

 CONCENTRATION WILL BE SAVED ON UNIT 1030 AT END OF TIME STEP   43, STRESS PERIOD    2


  MASS BUDGET FOR ENTIRE MODEL AT END OF TIME STEP   43, STRESS PERIOD   2
  ---------------------------------------------------------------------------------------------------

     CUMULATIVE MASS      M       RATES FOR THIS TIME STEP      M/T          PACKAGE NAME    
     ------------------                 ------------------------                     ----------------

           IN:                                      IN:
           ---                                      ---
     STORAGE-AQUEOUS =  6106349189.7699       STORAGE-AQUEOUS =     2593216.0076     MST                              
                 WEL =  7884000000.0000                   WEL =           0.0000     SSM_WEL-1                        
                 CHD =           0.0000                   CHD =           0.0000     SSM_CHD-1                        

            TOTAL IN = 13990349189.7699              TOTAL IN =     2593216.0076

          OUT:                                     OUT:
          ----                                     ----
     STORAGE-AQUEOUS =  7888670712.6395       STORAGE-AQUEOUS =         199.1187     MST                              
                 WEL =  6101678477.1305                   WEL =     2593016.8890     SSM_WEL-1                        
                 CHD =       7.5562E-18                   CHD =           0.0000     SSM_CHD-1                        

           TOTAL OUT = 13990349189.7700             TOTAL OUT =     2593216.0076

            IN - OUT =      -7.6294E-05              IN - OUT =      -7.5903E-08

 PERCENT DISCREPANCY =          -0.00     PERCENT DISCREPANCY =          -0.00




         TIME SUMMARY AT END OF TIME STEP   43 IN STRESS PERIOD    2
                    SECONDS     MINUTES      HOURS       DAYS        YEARS
                    -----------------------------------------------------------
   TIME STEP LENGTH 2.16991E+06  36165.      602.75      25.115     6.87602E-02
 STRESS PERIOD TIME 9.33061E+07 1.55510E+06  25918.      1079.9      2.9567    
         TOTAL TIME 1.72146E+08 2.86910E+06  47818.      1992.4      5.4550    


end timestep


start timestep kper="2" kstp="44" mode="normal"

 UBDSV1 SAVING  STORAGE-AQUEOUS ON UNIT   1029 AT TIME STEP     44, STRESS PERIOD      2
 UBDSV1 SAVING     FLOW-JA-FACE ON UNIT   1029 AT TIME STEP     44, STRESS PERIOD      2
 UBDSV06 SAVING  SOURCE-SINK MIX IN MODEL GWT_P06-MF6      PACKAGE GWT_P06-MF6     CONNECTED TO MODEL GWT_P06-MF6      PACKAGE SSM              ON UNIT   1029 AT TIME STEP     44, STRESS PERIOD      2
1
  CONCENTRATION IN LAYER   1 AT END OF TIME STEP  44 IN STRESS PERIOD    2
  ---------------------------------------------------------------------------

                1               2               3               4               5               6               7               8               9              10
               11              12              13              14              15              16              17              18              19              20
               21              22              23              24              25              26              27              28              29              30
               31
 ................................................................................................................................................................................................................................................................................................................................................................................................................................................................................................................
   1      0.00000        1.431709E-44    4.000427E-42   -8.305182E-41   -2.653978E-37   -6.967252E-35   -1.023399E-32   -1.003715E-30   -6.968116E-29   -3.493719E-27
        -1.264269E-25   -3.256719E-24   -5.905488E-23   -7.684871E-22   -6.780666E-21   -4.007707E-20   -6.780505E-21   -7.684079E-22   -5.903552E-23   -3.253699E-24
        -1.261459E-25   -3.477928E-27   -6.911571E-29   -9.902132E-31   -1.001312E-32   -6.717905E-35   -2.462581E-37    1.225428E-41    4.277541E-42    1.468274E-44
          0.00000    
   2     1.431709E-44    3.261496E-42    1.873350E-40   -1.399314E-37   -4.788867E-35   -8.234449E-33   -9.274862E-31   -7.398554E-29   -4.310213E-27   -1.851009E-25
        -5.833504E-24   -1.331584E-22   -2.185429E-21   -2.620081E-20   -2.055685E-19   -1.013971E-18   -2.055640E-19   -2.619848E-20   -2.184809E-21   -1.330490E-22
        -5.821850E-24   -1.843501E-25   -4.279260E-27   -7.312642E-29   -9.108867E-31   -8.007666E-33   -4.570229E-35   -1.253794E-37    2.511940E-40    3.436400E-42
         1.468805E-44
   3     4.000427E-42    1.873350E-40   -1.039738E-37   -3.748939E-35   -6.921847E-33   -8.513829E-31   -7.516203E-29   -4.910299E-27   -2.401992E-25   -8.801882E-24
        -2.397122E-22   -4.797489E-21   -7.063133E-20   -7.795013E-19   -5.576996E-18   -2.212409E-17   -5.576891E-18   -7.794436E-19   -7.061448E-20   -4.794033E-21
        -2.392821E-22   -8.769798E-24   -2.386708E-25   -4.860985E-27   -7.403885E-29   -8.328620E-31   -6.698045E-33   -3.550227E-35   -9.098090E-38    2.520056E-40
         4.284570E-42
   4    -8.305182E-41   -1.399314E-37   -3.748939E-35   -6.456626E-33   -8.021679E-31   -7.449496E-29   -5.250997E-27   -2.825286E-25   -1.159303E-23   -3.606101E-22
        -8.427802E-21   -1.472086E-19   -1.935647E-18   -1.852700E-17   -1.113174E-16   -3.183112E-16   -1.113152E-16   -1.852592E-17   -1.935291E-18   -1.471200E-19
        -8.414477E-21   -3.594361E-22   -1.152778E-23   -2.800744E-25   -5.185234E-27   -7.319496E-29   -7.827546E-31   -6.233552E-33   -3.547285E-35   -1.249790E-37
         1.599962E-41
   5    -2.653978E-37   -4.788867E-35   -6.921847E-33   -8.021679E-31   -7.399723E-29   -5.393297E-27   -3.084704E-25   -1.374435E-23   -4.732409E-22   -1.250008E-20
        -2.527511E-19   -3.914505E-18   -4.315700E-17   -2.239530E-16    4.766470E-15    6.952554E-14    4.766525E-15   -2.239286E-16   -4.315131E-17   -3.912809E-18
        -2.524227E-19   -1.246473E-20   -4.709118E-22   -1.364158E-23   -3.052350E-25   -5.317292E-27   -7.262043E-29   -7.824064E-31   -6.690668E-33   -4.560230E-35
        -2.451641E-37
   6    -6.967252E-35   -8.234449E-33   -8.513829E-31   -7.449496E-29   -5.393297E-27   -3.171064E-25   -1.490929E-23   -5.535335E-22   -1.610088E-20   -3.672040E-19
        -6.534802E-18   -7.594348E-17    4.334743E-16    6.136484E-14    1.502055E-12    1.365860E-11    1.502056E-12    6.136527E-14    4.335866E-16   -7.592215E-17
        -6.528914E-18   -3.663751E-19   -1.603417E-20   -5.500380E-22   -1.477971E-23   -3.135129E-25   -5.315631E-27   -7.314286E-29   -8.318376E-31   -7.992208E-33
        -6.698102E-35
   7    -1.023399E-32   -9.274862E-31   -7.516203E-29   -5.250997E-27   -3.084704E-25   -1.490929E-23   -5.826663E-22   -1.823197E-20   -4.574334E-19   -9.048228E-18
        -9.710912E-17    3.522059E-15    3.094824E-13    1.112248E-11    2.167056E-10    1.801585E-09    2.167056E-10    1.112248E-11    3.094837E-13    3.522269E-15
        -9.704589E-17   -9.034460E-18   -4.559859E-19   -1.813957E-20   -5.785965E-22   -1.477623E-23   -3.050763E-25   -5.180800E-27   -7.394593E-29   -9.093001E-31
        -9.989558E-33
   8    -1.003715E-30   -7.398554E-29   -4.910299E-27   -2.825286E-25   -1.374435E-23   -5.535335E-22   -1.823197E-20   -4.918788E-19   -1.058638E-17   -9.828955E-17
         9.401852E-15    8.873232E-13    4.300242E-11    1.310172E-09    2.346837E-08    1.826103E-07    2.346837E-08    1.310172E-09    4.300243E-11    8.873232E-13
         9.402193E-15   -9.816072E-17   -1.056493E-17   -4.900966E-19   -1.813649E-20   -5.498262E-22   -1.363307E-23   -2.798264E-25   -4.855256E-27   -7.301574E-29
        -9.883273E-31
   9    -6.968116E-29   -4.310213E-27   -2.401992E-25   -1.159303E-23   -4.732409E-22   -1.610088E-20   -4.574334E-19   -1.058638E-17   -9.465011E-17    1.463247E-14
         1.618068E-12    1.002212E-10    4.189648E-09    1.157940E-07    1.906286E-06    1.371870E-05    1.906286E-06    1.157940E-07    4.189648E-09    1.002212E-10
         1.618065E-12    1.463292E-14   -9.448067E-17   -1.056402E-17   -4.558758E-19   -1.602731E-20   -4.706220E-22   -1.151852E-23   -2.384317E-25   -4.274042E-27
        -6.901451E-29
  10    -3.493719E-27   -1.851009E-25   -8.801882E-24   -3.606101E-22   -1.250008E-20   -3.672040E-19   -9.048228E-18   -9.828955E-17    1.463247E-14    1.967633E-12
         1.507197E-10    8.071283E-09    3.009207E-07    7.426776E-06    1.096969E-04    7.136578E-04    1.096969E-04    7.426776E-06    3.009207E-07    8.071283E-09
         1.507197E-10    1.967628E-12    1.463291E-14   -9.814956E-17   -9.032692E-18   -3.662470E-19   -1.245857E-20   -3.592128E-22   -8.763271E-24   -1.841890E-25
        -3.474388E-27
  11    -1.264269E-25   -5.833504E-24   -2.397122E-22   -8.427802E-21   -2.527511E-19   -6.534802E-18   -9.710912E-17    9.401852E-15    1.618068E-12    1.507197E-10
         9.978415E-09    4.711450E-07    1.528008E-05    3.240670E-04    4.124553E-03    2.340239E-02    4.124553E-03    3.240670E-04    1.528008E-05    4.711450E-07
         9.978416E-09    1.507197E-10    1.618064E-12    9.402170E-15   -9.703571E-17   -6.527691E-18   -2.523478E-19   -8.411255E-21   -2.391733E-22   -5.818788E-24
        -1.260696E-25
  12    -3.256719E-24   -1.331584E-22   -4.797489E-21   -1.472086E-19   -3.914505E-18   -7.594348E-17    3.522059E-15    8.873232E-13    1.002212E-10    8.071283E-09
         4.711450E-07    1.915226E-05    5.168039E-04    8.861849E-03    9.094928E-02    0.423731        9.094928E-02    8.861849E-03    5.168039E-04    1.915226E-05
         4.711450E-07    8.071283E-09    1.002212E-10    8.873222E-13    3.522275E-15   -7.591770E-17   -3.912367E-18   -1.470954E-19   -4.793034E-21   -1.330165E-22
        -3.252776E-24
  13    -5.905488E-23   -2.185429E-21   -7.063133E-20   -1.935647E-18   -4.315700E-17    4.334743E-16    3.094824E-13    4.300242E-11    4.189648E-09    3.009207E-07
         1.528008E-05    5.168039E-04    1.094048E-02    0.138393         1.02833         3.56335         1.02833        0.138393        1.094048E-02    5.168039E-04
         1.528008E-05    3.009207E-07    4.189648E-09    4.300243E-11    3.094837E-13    4.336024E-16   -4.315010E-17   -1.935200E-18   -7.060993E-20   -2.184636E-21
        -5.902993E-23
  14    -7.684871E-22   -2.620081E-20   -7.795013E-19   -1.852700E-17   -2.239530E-16    6.136484E-14    1.112248E-11    1.310172E-09    1.157940E-07    7.426776E-06
         3.240670E-04    8.861849E-03    0.138393         1.15600         5.38751         12.4818         5.38751         1.15600        0.138393        8.861849E-03
         3.240670E-04    7.426776E-06    1.157940E-07    1.310172E-09    1.112248E-11    6.136533E-14   -2.239248E-16   -1.852572E-17   -7.794323E-19   -2.619801E-20
        -7.683913E-22
  15    -6.780666E-21   -2.055685E-19   -5.576996E-18   -1.113174E-16    4.766470E-15    1.502055E-12    2.167056E-10    2.346837E-08    1.906286E-06    1.096969E-04
         4.124553E-03    9.094928E-02     1.02833         5.38751         15.6051         22.0107         15.6051         5.38751         1.02833        9.094928E-02
         4.124553E-03    1.096969E-04    1.906286E-06    2.346837E-08    2.167056E-10    1.502056E-12    4.766533E-15   -1.113149E-16   -5.576878E-18   -2.055635E-19
        -6.780486E-21
  16    -4.007707E-20   -1.013971E-18   -2.212409E-17   -3.183112E-16    6.952554E-14    1.365860E-11    1.801585E-09    1.826103E-07    1.371870E-05    7.136578E-04
         2.340239E-02    0.423731         3.56335         12.4818         22.0107         28.9043         22.0107         12.4818         3.56335        0.423731    
         2.340239E-02    7.136578E-04    1.371870E-05    1.826103E-07    1.801585E-09    1.365860E-11    6.952554E-14   -3.183112E-16   -2.212410E-17   -1.013971E-18
        -4.007707E-20
  17    -6.780505E-21   -2.055640E-19   -5.576891E-18   -1.113152E-16    4.766525E-15    1.502056E-12    2.167056E-10    2.346837E-08    1.906286E-06    1.096969E-04
         4.124553E-03    9.094928E-02     1.02833         5.38751         15.6051         22.0107         15.6051         5.38751         1.02833        9.094928E-02
         4.124553E-03    1.096969E-04    1.906286E-06    2.346837E-08    2.167056E-10    1.502055E-12    4.766470E-15   -1.113174E-16   -5.576996E-18   -2.055685E-19
        -6.780666E-21
  18    -7.684079E-22   -2.619848E-20   -7.794436E-19   -1.852592E-17   -2.239286E-16    6.136527E-14    1.112248E-11    1.310172E-09    1.157940E-07    7.426776E-06
         3.240670E-04    8.861849E-03    0.138393         1.15600         5.38751         12.4818         5.38751         1.15600        0.138393        8.861849E-03
         3.240670E-04    7.426776E-06    1.157940E-07    1.310172E-09    1.112248E-11    6.136484E-14   -2.239529E-16   -1.852700E-17   -7.795013E-19   -2.620081E-20
        -7.684871E-22
  19    -5.903552E-23   -2.184809E-21   -7.061448E-20   -1.935291E-18   -4.315131E-17    4.335866E-16    3.094837E-13    4.300243E-11    4.189648E-09    3.009207E-07
         1.528008E-05    5.168039E-04    1.094048E-02    0.138393         1.02833         3.56335         1.02833        0.138393        1.094048E-02    5.168039E-04
         1.528008E-05    3.009207E-07    4.189648E-09    4.300242E-11    3.094824E-13    4.334744E-16   -4.315700E-17   -1.935647E-18   -7.063133E-20   -2.185429E-21
        -5.905488E-23
  20    -3.253699E-24   -1.330490E-22   -4.794033E-21   -1.471200E-19   -3.912809E-18   -7.592215E-17    3.522269E-15    8.873232E-13    1.002212E-10    8.071283E-09
         4.711450E-07    1.915226E-05    5.168039E-04    8.861849E-03    9.094928E-02    0.423731        9.094928E-02    8.861849E-03    5.168039E-04    1.915226E-05
         4.711450E-07    8.071283E-09    1.002212E-10    8.873232E-13    3.522059E-15   -7.594348E-17   -3.914505E-18   -1.472086E-19   -4.797489E-21   -1.331584E-22
        -3.256719E-24
  21    -1.261459E-25   -5.821850E-24   -2.392821E-22   -8.414477E-21   -2.524227E-19   -6.528914E-18   -9.704589E-17    9.402193E-15    1.618065E-12    1.507197E-10
         9.978416E-09    4.711450E-07    1.528008E-05    3.240670E-04    4.124553E-03    2.340239E-02    4.124553E-03    3.240670E-04    1.528008E-05    4.711450E-07
         9.978415E-09    1.507197E-10    1.618068E-12    9.401852E-15   -9.710912E-17   -6.534802E-18   -2.527511E-19   -8.427802E-21   -2.397122E-22   -5.833504E-24
        -1.264269E-25
  22    -3.477928E-27   -1.843501E-25   -8.769798E-24   -3.594361E-22   -1.246473E-20   -3.663751E-19   -9.034460E-18   -9.816072E-17    1.463292E-14    1.967628E-12
         1.507197E-10    8.071283E-09    3.009207E-07    7.426776E-06    1.096969E-04    7.136578E-04    1.096969E-04    7.426776E-06    3.009207E-07    8.071283E-09
         1.507197E-10    1.967633E-12    1.463247E-14   -9.828955E-17   -9.048227E-18   -3.672040E-19   -1.250008E-20   -3.606101E-22   -8.801881E-24   -1.851009E-25
        -3.493719E-27
  23    -6.911571E-29   -4.279260E-27   -2.386708E-25   -1.152778E-23   -4.709118E-22   -1.603417E-20   -4.559859E-19   -1.056493E-17   -9.448067E-17    1.463291E-14
         1.618064E-12    1.002212E-10    4.189648E-09    1.157940E-07    1.906286E-06    1.371870E-05    1.906286E-06    1.157940E-07    4.189648E-09    1.002212E-10
         1.618068E-12    1.463247E-14   -9.465011E-17   -1.058638E-17   -4.574334E-19   -1.610088E-20   -4.732409E-22   -1.159303E-23   -2.401992E-25   -4.310213E-27
        -6.968116E-29
  24    -9.902132E-31   -7.312642E-29   -4.860985E-27   -2.800744E-25   -1.364158E-23   -5.500380E-22   -1.813957E-20   -4.900966E-19   -1.056402E-17   -9.814956E-17
         9.402170E-15    8.873222E-13    4.300243E-11    1.310172E-09    2.346837E-08    1.826103E-07    2.346837E-08    1.310172E-09    4.300242E-11    8.873232E-13
         9.401852E-15   -9.828955E-17   -1.058638E-17   -4.918788E-19   -1.823197E-20   -5.535335E-22   -1.374435E-23   -2.825286E-25   -4.910299E-27   -7.398554E-29
        -1.003715E-30
  25    -1.001312E-32   -9.108867E-31   -7.403885E-29   -5.185234E-27   -3.052350E-25   -1.477971E-23   -5.785965E-22   -1.813649E-20   -4.558758E-19   -9.032692E-18
        -9.703571E-17    3.522275E-15    3.094837E-13    1.112248E-11    2.167056E-10    1.801585E-09    2.167056E-10    1.112248E-11    3.094824E-13    3.522059E-15
        -9.710912E-17   -9.048227E-18   -4.574334E-19   -1.823197E-20   -5.826663E-22   -1.490929E-23   -3.084704E-25   -5.250997E-27   -7.516203E-29   -9.274862E-31
        -1.023399E-32
  26    -6.717905E-35   -8.007666E-33   -8.328620E-31   -7.319496E-29   -5.317292E-27   -3.135129E-25   -1.477623E-23   -5.498262E-22   -1.602731E-20   -3.662470E-19
        -6.527691E-18   -7.591770E-17    4.336024E-16    6.136533E-14    1.502056E-12    1.365860E-11    1.502055E-12    6.136484E-14    4.334744E-16   -7.594348E-17
        -6.534802E-18   -3.672040E-19   -1.610088E-20   -5.535335E-22   -1.490929E-23   -3.171064E-25   -5.393297E-27   -7.449496E-29   -8.513829E-31   -8.234449E-33
        -6.967252E-35
  27    -2.462581E-37   -4.570229E-35   -6.698045E-33   -7.827546E-31   -7.262043E-29   -5.315631E-27   -3.050763E-25   -1.363307E-23   -4.706220E-22   -1.245857E-20
        -2.523478E-19   -3.912367E-18   -4.315010E-17   -2.239248E-16    4.766533E-15    6.952554E-14    4.766470E-15   -2.239529E-16   -4.315700E-17   -3.914505E-18
        -2.527511E-19   -1.250008E-20   -4.732409E-22   -1.374435E-23   -3.084704E-25   -5.393297E-27   -7.399723E-29   -8.021679E-31   -6.921847E-33   -4.788867E-35
        -2.653978E-37
  28     1.225428E-41   -1.253794E-37   -3.550227E-35   -6.233552E-33   -7.824064E-31   -7.314286E-29   -5.180800E-27   -2.798264E-25   -1.151852E-23   -3.592128E-22
        -8.411255E-21   -1.470954E-19   -1.935200E-18   -1.852572E-17   -1.113149E-16   -3.183112E-16   -1.113174E-16   -1.852700E-17   -1.935647E-18   -1.472086E-19
        -8.427802E-21   -3.606101E-22   -1.159303E-23   -2.825286E-25   -5.250997E-27   -7.449496E-29   -8.021679E-31   -6.456626E-33   -3.748939E-35   -1.399314E-37
        -8.305180E-41
  29     4.277541E-42    2.511940E-40   -9.098090E-38   -3.547285E-35   -6.690668E-33   -8.318376E-31   -7.394593E-29   -4.855256E-27   -2.384317E-25   -8.763271E-24
        -2.391733E-22   -4.793034E-21   -7.060993E-20   -7.794323E-19   -5.576878E-18   -2.212410E-17   -5.576996E-18   -7.795013E-19   -7.063133E-20   -4.797489E-21
        -2.397122E-22   -8.801881E-24   -2.401992E-25   -4.910299E-27   -7.516203E-29   -8.513829E-31   -6.921847E-33   -3.748939E-35   -1.039738E-37    1.873350E-40
         4.000427E-42
  30     1.468274E-44    3.436400E-42    2.520056E-40   -1.249790E-37   -4.560230E-35   -7.992208E-33   -9.093001E-31   -7.301574E-29   -4.274042E-27   -1.841890E-25
        -5.818788E-24   -1.330165E-22   -2.184636E-21   -2.619801E-20   -2.055635E-19   -1.013971E-18   -2.055685E-19   -2.620081E-20   -2.185429E-21   -1.331584E-22
        -5.833504E-24   -1.851009E-25   -4.310213E-27   -7.398554E-29   -9.274862E-31   -8.234449E-33   -4.788867E-35   -1.399314E-37    1.873350E-40    3.261496E-42
         1.431709E-44
  31      0.00000        1.468805E-44    4.284570E-42    1.599962E-41   -2.451641E-37   -6.698102E-35   -9.989558E-33   -9.883273E-31   -6.901451E-29   -3.474388E-27
        -1.260696E-25   -3.252776E-24   -5.902993E-23   -7.683913E-22   -6.780486E-21   -4.007707E-20   -6.780666E-21   -7.684871E-22   -5.905488E-23   -3.256719E-24
        -1.264269E-25   -3.493719E-27   -6.968116E-29   -1.003715E-30   -1.023399E-32   -6.967252E-35   -2.653978E-37   -8.305180E-41    4.000427E-42    1.431709E-44
          0.00000    

 CONCENTRATION WILL BE SAVED ON UNIT 1030 AT END OF TIME STEP   44, STRESS PERIOD    2


  MASS BUDGET FOR ENTIRE MODEL AT END OF TIME STEP   44, STRESS PERIOD   2
  ---------------------------------------------------------------------------------------------------

     CUMULATIVE MASS      M       RATES FOR THIS TIME STEP      M/T          PACKAGE NAME    
     ------------------                 ------------------------                     ----------------

           IN:                                      IN:
           ---                                      ---
     STORAGE-AQUEOUS =  6169073454.0461       STORAGE-AQUEOUS =     2497514.0844     MST                              
                 WEL =  7884000000.0000                   WEL =           0.0000     SSM_WEL-1                        
                 CHD =           0.0000                   CHD =           0.0000     SSM_CHD-1                        

            TOTAL IN = 14053073454.0461              TOTAL IN =     2497514.0844

          OUT:                                     OUT:
          ----                                     ----
     STORAGE-AQUEOUS =  7888675208.6805       STORAGE-AQUEOUS =         179.0204     MST                              
                 WEL =  6164398245.3657                   WEL =     2497335.0640     SSM_WEL-1                        
                 CHD =       7.5562E-18                   CHD =           0.0000     SSM_CHD-1                        

           TOTAL OUT = 14053073454.0462             TOTAL OUT =     2497514.0844

            IN - OUT =      -7.8201E-05              IN - OUT =      -7.5437E-08

 PERCENT DISCREPANCY =          -0.00     PERCENT DISCREPANCY =          -0.00




         TIME SUMMARY AT END OF TIME STEP   44 IN STRESS PERIOD    2
                    SECONDS     MINUTES      HOURS       DAYS        YEARS
                    -----------------------------------------------------------
   TIME STEP LENGTH 2.16991E+06  36165.      602.75      25.115     6.87602E-02
 STRESS PERIOD TIME 9.54760E+07 1.59127E+06  26521.      1105.0      3.0255    
         TOTAL TIME 1.74316E+08 2.90527E+06  48421.      2017.5      5.5237    


end timestep


start timestep kper="2" kstp="45" mode="normal"

 UBDSV1 SAVING  STORAGE-AQUEOUS ON UNIT   1029 AT TIME STEP     45, STRESS PERIOD      2
 UBDSV1 SAVING     FLOW-JA-FACE ON UNIT   1029 AT TIME STEP     45, STRESS PERIOD      2
 UBDSV06 SAVING  SOURCE-SINK MIX IN MODEL GWT_P06-MF6      PACKAGE GWT_P06-MF6     CONNECTED TO MODEL GWT_P06-MF6      PACKAGE SSM              ON UNIT   1029 AT TIME STEP     45, STRESS PERIOD      2
1
  CONCENTRATION IN LAYER   1 AT END OF TIME STEP  45 IN STRESS PERIOD    2
  ---------------------------------------------------------------------------

                1               2               3               4               5               6               7               8               9              10
               11              12              13              14              15              16              17              18              19              20
               21              22              23              24              25              26              27              28              29              30
               31
 ................................................................................................................................................................................................................................................................................................................................................................................................................................................................................................................
   1      0.00000        1.478115E-44    3.992255E-42   -1.591988E-40   -2.925217E-37   -7.474240E-35   -1.084371E-32   -1.054402E-30   -7.268081E-29   -3.621108E-27
        -1.302908E-25   -3.339848E-24   -6.033362E-23   -7.824796E-22   -6.879360E-21   -4.040512E-20   -6.879198E-21   -7.823995E-22   -6.031401E-23   -3.336778E-24
        -1.300041E-25   -3.604924E-27   -7.209842E-29   -1.040422E-30   -1.061375E-32   -7.213132E-35   -2.723563E-37   -5.808939E-41    4.288868E-42    1.517823E-44
          0.00000    
   2     1.478115E-44    3.284447E-42    1.509384E-40   -1.560166E-37   -5.139444E-35   -8.719993E-33   -9.739631E-31   -7.717510E-29   -4.469442E-27   -1.908882E-25
        -5.985476E-24   -1.360254E-22   -2.224796E-21   -2.658656E-20   -2.079836E-19   -1.019826E-18   -2.079791E-19   -2.658421E-20   -2.224170E-21   -1.359146E-22
        -5.973626E-24   -1.901215E-25   -4.437692E-27   -7.628971E-29   -9.567744E-31   -8.484031E-33   -4.910837E-35   -1.407203E-37    2.184959E-40    3.471269E-42
         1.518407E-44
   3     3.992255E-42    1.509384E-40   -1.168515E-37   -4.024984E-35   -7.325244E-33   -8.934708E-31   -7.837387E-29   -5.091574E-27   -2.477772E-25   -9.035148E-24
        -2.449541E-22   -4.883605E-21   -7.168171E-20   -7.879864E-19   -5.613220E-18   -2.201825E-17   -5.613115E-18   -7.879284E-19   -7.166474E-20   -4.880116E-21
        -2.445183E-22   -9.002505E-24   -2.462154E-25   -5.040962E-27   -7.721612E-29   -8.742979E-31   -7.092566E-33   -3.817446E-35   -1.032080E-37    2.193631E-40
         4.296479E-42
   4    -1.591988E-40   -1.560166E-37   -4.024984E-35   -6.830913E-33   -8.414026E-31   -7.764344E-29   -5.443396E-27   -2.914305E-25   -1.190244E-23   -3.686242E-22
        -8.582336E-21   -1.494391E-19   -1.956897E-18   -1.855166E-17   -1.068291E-16   -2.650819E-16   -1.068269E-16   -1.855058E-17   -1.956540E-18   -1.493501E-19
        -8.568885E-21   -3.674341E-22   -1.183602E-23   -2.889214E-25   -5.375883E-27   -7.630346E-29   -8.213114E-31   -6.599064E-33   -3.814354E-35   -1.402963E-37
        -5.407911E-41
   5    -2.925217E-37   -5.139444E-35   -7.325244E-33   -8.414026E-31   -7.710953E-29   -5.589653E-27   -3.181448E-25   -1.411133E-23   -4.838592E-22   -1.273460E-20
        -2.566706E-19   -3.950808E-18   -4.244217E-17   -1.715049E-16    5.871930E-15    7.868258E-14    5.871985E-15   -1.714805E-16   -4.243643E-17   -3.949110E-18
        -2.563405E-19   -1.269892E-20   -4.814971E-22   -1.400667E-23   -3.148361E-25   -5.511617E-27   -7.569039E-29   -8.209498E-31   -7.084860E-33   -4.900321E-35
        -2.711955E-37
   6    -7.474240E-35   -8.719993E-33   -8.934708E-31   -7.764344E-29   -5.589653E-27   -3.270291E-25   -1.530682E-23   -5.660016E-22   -1.640721E-20   -3.729236E-19
        -6.572994E-18   -7.194229E-17    7.101419E-16    7.018918E-14    1.660109E-12    1.487045E-11    1.660110E-12    7.018961E-14    7.102536E-16   -7.192094E-17
        -6.567104E-18   -3.720905E-19   -1.633983E-20   -5.624555E-22   -1.517482E-23   -3.233538E-25   -5.509908E-27   -7.624960E-29   -8.732337E-31   -8.467878E-33
        -7.192285E-35
   7    -1.084371E-32   -9.739631E-31   -7.837387E-29   -5.443396E-27   -3.181448E-25   -1.530682E-23   -5.958021E-22   -1.858079E-20   -4.644964E-19   -9.065405E-18
        -8.595151E-17    4.390217E-15    3.475943E-13    1.219675E-11    2.344389E-10    1.927008E-09    2.344389E-10    1.219675E-11    3.475955E-13    4.390424E-15
        -8.588848E-17   -9.051644E-18   -4.630415E-19   -1.848746E-20   -5.916730E-22   -1.517127E-23   -3.146736E-25   -5.371321E-27   -7.712009E-29   -9.551263E-31
        -1.058912E-32
   8    -1.054402E-30   -7.717510E-29   -5.091574E-27   -2.914305E-25   -1.411133E-23   -5.660016E-22   -1.858079E-20   -4.994325E-19   -1.057843E-17   -7.856420E-17
         1.119799E-14    9.888718E-13    4.694237E-11    1.410495E-09    2.496147E-08    1.920670E-07    2.496147E-08    1.410495E-09    4.694238E-11    9.888718E-13
         1.119832E-14   -7.843606E-17   -1.055699E-17   -4.976411E-19   -1.848434E-20   -5.622406E-22   -1.399799E-23   -2.886675E-25   -5.035072E-27   -7.617540E-29
        -1.038464E-30
   9    -7.268081E-29   -4.469442E-27   -2.477772E-25   -1.190244E-23   -4.838592E-22   -1.640721E-20   -4.644964E-19   -1.057843E-17   -7.094041E-17    1.719106E-14
         1.796647E-12    1.090885E-10    4.493609E-09    1.225438E-07    1.992869E-06    1.418115E-05    1.992869E-06    1.225438E-07    4.493609E-09    1.090885E-10
         1.796645E-12    1.719150E-14   -7.077200E-17   -1.055609E-17   -4.629308E-19   -1.633290E-20   -4.812030E-22   -1.182658E-23   -2.459708E-25   -4.432332E-27
        -7.199400E-29
  10    -3.621108E-27   -1.908882E-25   -9.035148E-24   -3.686242E-22   -1.273460E-20   -3.729236E-19   -9.065405E-18   -7.856420E-17    1.719106E-14    2.182392E-12
         1.638195E-10    8.636045E-09    3.172484E-07    7.722257E-06    1.126543E-04    7.247560E-04    1.126543E-04    7.722257E-06    3.172484E-07    8.636045E-09
         1.638195E-10    2.182387E-12    1.719149E-14   -7.842503E-17   -9.049879E-18   -3.719618E-19   -1.269269E-20   -3.672076E-22   -8.995861E-24   -1.899569E-25
        -3.601293E-27
  11    -1.302908E-25   -5.985476E-24   -2.449541E-22   -8.582336E-21   -2.566706E-19   -6.572994E-18   -8.595151E-17    1.119799E-14    1.796647E-12    1.638195E-10
         1.066775E-08    4.956756E-07    1.582777E-05    3.309120E-04    4.159740E-03    2.334935E-02    4.159740E-03    3.309120E-04    1.582777E-05    4.956756E-07
         1.066775E-08    1.638195E-10    1.796643E-12    1.119830E-14   -8.587841E-17   -6.565883E-18   -2.562653E-19   -8.565634E-21   -2.444081E-22   -5.970513E-24
        -1.299263E-25
  12    -3.339848E-24   -1.360254E-22   -4.883605E-21   -1.494391E-19   -3.950808E-18   -7.194229E-17    4.390217E-15    9.888718E-13    1.090885E-10    8.636045E-09
         4.956756E-07    1.981139E-05    5.259156E-04    8.886376E-03    9.011253E-02    0.415800        9.011253E-02    8.886376E-03    5.259156E-04    1.981139E-05
         4.956756E-07    8.636045E-09    1.090885E-10    9.888709E-13    4.390430E-15   -7.191651E-17   -3.948668E-18   -1.493253E-19   -4.879109E-21   -1.358817E-22
        -3.335841E-24
  13    -6.033362E-23   -2.224796E-21   -7.168171E-20   -1.956897E-18   -4.244217E-17    7.101419E-16    3.475943E-13    4.694237E-11    4.493609E-09    3.172484E-07
         1.582777E-05    5.259156E-04    1.094553E-02    0.136435         1.00312         3.45216         1.00312        0.136435        1.094553E-02    5.259156E-04
         1.582777E-05    3.172484E-07    4.493609E-09    4.694238E-11    3.475956E-13    7.102692E-16   -4.243522E-17   -1.956449E-18   -7.166017E-20   -2.223995E-21
        -6.030834E-23
  14    -7.824796E-22   -2.658656E-20   -7.879864E-19   -1.855166E-17   -1.715049E-16    7.018918E-14    1.219675E-11    1.410495E-09    1.225438E-07    7.722257E-06
         3.309120E-04    8.886376E-03    0.136435         1.12449         5.20418         12.0287         5.20418         1.12449        0.136435        8.886376E-03
         3.309120E-04    7.722257E-06    1.225438E-07    1.410495E-09    1.219675E-11    7.018966E-14   -1.714766E-16   -1.855038E-17   -7.879171E-19   -2.658373E-20
        -7.823827E-22
  15    -6.879360E-21   -2.079836E-19   -5.613220E-18   -1.068291E-16    5.871930E-15    1.660109E-12    2.344389E-10    2.496147E-08    1.992869E-06    1.126543E-04
         4.159740E-03    9.011253E-02     1.00312         5.20418         15.0456         21.1998         15.0456         5.20418         1.00312        9.011253E-02
         4.159740E-03    1.126543E-04    1.992869E-06    2.496147E-08    2.344389E-10    1.660110E-12    5.871993E-15   -1.068266E-16   -5.613102E-18   -2.079786E-19
        -6.879179E-21
  16    -4.040512E-20   -1.019826E-18   -2.201825E-17   -2.650819E-16    7.868258E-14    1.487045E-11    1.927008E-09    1.920670E-07    1.418115E-05    7.247560E-04
         2.334935E-02    0.415800         3.45216         12.0287         21.1998         27.8377         21.1998         12.0287         3.45216        0.415800    
         2.334935E-02    7.247560E-04    1.418115E-05    1.920670E-07    1.927008E-09    1.487045E-11    7.868259E-14   -2.650819E-16   -2.201825E-17   -1.019826E-18
        -4.040512E-20
  17    -6.879198E-21   -2.079791E-19   -5.613115E-18   -1.068269E-16    5.871985E-15    1.660110E-12    2.344389E-10    2.496147E-08    1.992869E-06    1.126543E-04
         4.159740E-03    9.011253E-02     1.00312         5.20418         15.0456         21.1998         15.0456         5.20418         1.00312        9.011253E-02
         4.159740E-03    1.126543E-04    1.992869E-06    2.496147E-08    2.344389E-10    1.660109E-12    5.871930E-15   -1.068291E-16   -5.613220E-18   -2.079836E-19
        -6.879360E-21
  18    -7.823995E-22   -2.658421E-20   -7.879284E-19   -1.855058E-17   -1.714805E-16    7.018961E-14    1.219675E-11    1.410495E-09    1.225438E-07    7.722257E-06
         3.309120E-04    8.886376E-03    0.136435         1.12449         5.20418         12.0287         5.20418         1.12449        0.136435        8.886376E-03
         3.309120E-04    7.722257E-06    1.225438E-07    1.410495E-09    1.219675E-11    7.018918E-14   -1.715049E-16   -1.855166E-17   -7.879864E-19   -2.658656E-20
        -7.824796E-22
  19    -6.031401E-23   -2.224170E-21   -7.166474E-20   -1.956540E-18   -4.243643E-17    7.102536E-16    3.475955E-13    4.694238E-11    4.493609E-09    3.172484E-07
         1.582777E-05    5.259156E-04    1.094553E-02    0.136435         1.00312         3.45216         1.00312        0.136435        1.094553E-02    5.259156E-04
         1.582777E-05    3.172484E-07    4.493609E-09    4.694237E-11    3.475943E-13    7.101419E-16   -4.244217E-17   -1.956897E-18   -7.168171E-20   -2.224796E-21
        -6.033362E-23
  20    -3.336778E-24   -1.359146E-22   -4.880116E-21   -1.493501E-19   -3.949110E-18   -7.192094E-17    4.390424E-15    9.888718E-13    1.090885E-10    8.636045E-09
         4.956756E-07    1.981139E-05    5.259156E-04    8.886376E-03    9.011253E-02    0.415800        9.011253E-02    8.886376E-03    5.259156E-04    1.981139E-05
         4.956756E-07    8.636045E-09    1.090885E-10    9.888718E-13    4.390217E-15   -7.194229E-17   -3.950808E-18   -1.494391E-19   -4.883605E-21   -1.360254E-22
        -3.339848E-24
  21    -1.300041E-25   -5.973626E-24   -2.445183E-22   -8.568885E-21   -2.563405E-19   -6.567104E-18   -8.588848E-17    1.119832E-14    1.796645E-12    1.638195E-10
         1.066775E-08    4.956756E-07    1.582777E-05    3.309120E-04    4.159740E-03    2.334935E-02    4.159740E-03    3.309120E-04    1.582777E-05    4.956756E-07
         1.066775E-08    1.638195E-10    1.796647E-12    1.119799E-14   -8.595151E-17   -6.572994E-18   -2.566706E-19   -8.582336E-21   -2.449541E-22   -5.985476E-24
        -1.302908E-25
  22    -3.604924E-27   -1.901215E-25   -9.002505E-24   -3.674341E-22   -1.269892E-20   -3.720905E-19   -9.051644E-18   -7.843606E-17    1.719150E-14    2.182387E-12
         1.638195E-10    8.636045E-09    3.172484E-07    7.722257E-06    1.126543E-04    7.247560E-04    1.126543E-04    7.722257E-06    3.172484E-07    8.636045E-09
         1.638195E-10    2.182392E-12    1.719106E-14   -7.856420E-17   -9.065405E-18   -3.729236E-19   -1.273460E-20   -3.686242E-22   -9.035148E-24   -1.908882E-25
        -3.621108E-27
  23    -7.209842E-29   -4.437692E-27   -2.462154E-25   -1.183602E-23   -4.814971E-22   -1.633983E-20   -4.630415E-19   -1.055699E-17   -7.077200E-17    1.719149E-14
         1.796643E-12    1.090885E-10    4.493609E-09    1.225438E-07    1.992869E-06    1.418115E-05    1.992869E-06    1.225438E-07    4.493609E-09    1.090885E-10
         1.796647E-12    1.719106E-14   -7.094041E-17   -1.057843E-17   -4.644964E-19   -1.640721E-20   -4.838592E-22   -1.190244E-23   -2.477772E-25   -4.469442E-27
        -7.268081E-29
  24    -1.040422E-30   -7.628971E-29   -5.040962E-27   -2.889214E-25   -1.400667E-23   -5.624555E-22   -1.848746E-20   -4.976411E-19   -1.055609E-17   -7.842503E-17
         1.119830E-14    9.888709E-13    4.694238E-11    1.410495E-09    2.496147E-08    1.920670E-07    2.496147E-08    1.410495E-09    4.694237E-11    9.888718E-13
         1.119799E-14   -7.856420E-17   -1.057843E-17   -4.994325E-19   -1.858079E-20   -5.660016E-22   -1.411133E-23   -2.914305E-25   -5.091574E-27   -7.717510E-29
        -1.054402E-30
  25    -1.061375E-32   -9.567744E-31   -7.721612E-29   -5.375883E-27   -3.148361E-25   -1.517482E-23   -5.916730E-22   -1.848434E-20   -4.629308E-19   -9.049879E-18
        -8.587841E-17    4.390430E-15    3.475956E-13    1.219675E-11    2.344389E-10    1.927008E-09    2.344389E-10    1.219675E-11    3.475943E-13    4.390217E-15
        -8.595151E-17   -9.065405E-18   -4.644964E-19   -1.858079E-20   -5.958021E-22   -1.530682E-23   -3.181448E-25   -5.443396E-27   -7.837387E-29   -9.739631E-31
        -1.084371E-32
  26    -7.213132E-35   -8.484031E-33   -8.742979E-31   -7.630346E-29   -5.511617E-27   -3.233538E-25   -1.517127E-23   -5.622406E-22   -1.633290E-20   -3.719618E-19
        -6.565883E-18   -7.191651E-17    7.102692E-16    7.018966E-14    1.660110E-12    1.487045E-11    1.660109E-12    7.018918E-14    7.101419E-16   -7.194229E-17
        -6.572994E-18   -3.729236E-19   -1.640721E-20   -5.660016E-22   -1.530682E-23   -3.270291E-25   -5.589653E-27   -7.764344E-29   -8.934708E-31   -8.719993E-33
        -7.474240E-35
  27    -2.723563E-37   -4.910837E-35   -7.092566E-33   -8.213114E-31   -7.569039E-29   -5.509908E-27   -3.146736E-25   -1.399799E-23   -4.812030E-22   -1.269269E-20
        -2.562653E-19   -3.948668E-18   -4.243522E-17   -1.714766E-16    5.871993E-15    7.868259E-14    5.871930E-15   -1.715049E-16   -4.244217E-17   -3.950808E-18
        -2.566706E-19   -1.273460E-20   -4.838592E-22   -1.411133E-23   -3.181448E-25   -5.589653E-27   -7.710953E-29   -8.414026E-31   -7.325244E-33   -5.139444E-35
        -2.925217E-37
  28    -5.808939E-41   -1.407203E-37   -3.817446E-35   -6.599064E-33   -8.209498E-31   -7.624960E-29   -5.371321E-27   -2.886675E-25   -1.182658E-23   -3.672076E-22
        -8.565634E-21   -1.493253E-19   -1.956449E-18   -1.855038E-17   -1.068266E-16   -2.650819E-16   -1.068291E-16   -1.855166E-17   -1.956897E-18   -1.494391E-19
        -8.582336E-21   -3.686242E-22   -1.190244E-23   -2.914305E-25   -5.443396E-27   -7.764344E-29   -8.414026E-31   -6.830913E-33   -4.024984E-35   -1.560166E-37
        -1.591988E-40
  29     4.288868E-42    2.184959E-40   -1.032080E-37   -3.814354E-35   -7.084860E-33   -8.732337E-31   -7.712009E-29   -5.035072E-27   -2.459708E-25   -8.995861E-24
        -2.444081E-22   -4.879109E-21   -7.166017E-20   -7.879171E-19   -5.613102E-18   -2.201825E-17   -5.613220E-18   -7.879864E-19   -7.168171E-20   -4.883605E-21
        -2.449541E-22   -9.035148E-24   -2.477772E-25   -5.091574E-27   -7.837387E-29   -8.934708E-31   -7.325244E-33   -4.024984E-35   -1.168515E-37    1.509384E-40
         3.992255E-42
  30     1.517823E-44    3.471269E-42    2.193631E-40   -1.402963E-37   -4.900321E-35   -8.467878E-33   -9.551263E-31   -7.617540E-29   -4.432332E-27   -1.899569E-25
        -5.970513E-24   -1.358817E-22   -2.223995E-21   -2.658373E-20   -2.079786E-19   -1.019826E-18   -2.079836E-19   -2.658656E-20   -2.224796E-21   -1.360254E-22
        -5.985476E-24   -1.908882E-25   -4.469442E-27   -7.717510E-29   -9.739631E-31   -8.719993E-33   -5.139444E-35   -1.560166E-37    1.509384E-40    3.284447E-42
         1.478115E-44
  31      0.00000        1.518407E-44    4.296479E-42   -5.407911E-41   -2.711955E-37   -7.192285E-35   -1.058912E-32   -1.038464E-30   -7.199400E-29   -3.601293E-27
        -1.299263E-25   -3.335841E-24   -6.030834E-23   -7.823827E-22   -6.879179E-21   -4.040512E-20   -6.879360E-21   -7.824796E-22   -6.033362E-23   -3.339848E-24
        -1.302908E-25   -3.621108E-27   -7.268081E-29   -1.054402E-30   -1.084371E-32   -7.474240E-35   -2.925217E-37   -1.591988E-40    3.992255E-42    1.478115E-44
          0.00000    

 CONCENTRATION WILL BE SAVED ON UNIT 1030 AT END OF TIME STEP   45, STRESS PERIOD    2


  MASS BUDGET FOR ENTIRE MODEL AT END OF TIME STEP   45, STRESS PERIOD   2
  ---------------------------------------------------------------------------------------------------

     CUMULATIVE MASS      M       RATES FOR THIS TIME STEP      M/T          PACKAGE NAME    
     ------------------                 ------------------------                     ----------------

           IN:                                      IN:
           ---                                      ---
     STORAGE-AQUEOUS =  6229482742.0455       STORAGE-AQUEOUS =     2405337.8601     MST                              
                 WEL =  7884000000.0000                   WEL =           0.0000     SSM_WEL-1                        
                 CHD =           0.0000                   CHD =           0.0000     SSM_CHD-1                        

            TOTAL IN = 14113482742.0455              TOTAL IN =     2405337.8601

          OUT:                                     OUT:
          ----                                     ----
     STORAGE-AQUEOUS =  7888679211.7828       STORAGE-AQUEOUS =         159.3929     MST                              
                 WEL =  6224803530.2628                   WEL =     2405178.4671     SSM_WEL-1                        
                 CHD =       7.5562E-18                   CHD =           0.0000     SSM_CHD-1                        

           TOTAL OUT = 14113482742.0455             TOTAL OUT =     2405337.8601

            IN - OUT =      -8.0109E-05              IN - OUT =      -6.8918E-08

 PERCENT DISCREPANCY =          -0.00     PERCENT DISCREPANCY =          -0.00




         TIME SUMMARY AT END OF TIME STEP   45 IN STRESS PERIOD    2
                    SECONDS     MINUTES      HOURS       DAYS        YEARS
                    -----------------------------------------------------------
   TIME STEP LENGTH 2.16991E+06  36165.      602.75      25.115     6.87602E-02
 STRESS PERIOD TIME 9.76459E+07 1.62743E+06  27124.      1130.2      3.0942    
         TOTAL TIME 1.76486E+08 2.94143E+06  49024.      2042.7      5.5925    


end timestep


start timestep kper="2" kstp="46" mode="normal"

 UBDSV1 SAVING  STORAGE-AQUEOUS ON UNIT   1029 AT TIME STEP     46, STRESS PERIOD      2
 UBDSV1 SAVING     FLOW-JA-FACE ON UNIT   1029 AT TIME STEP     46, STRESS PERIOD      2
 UBDSV06 SAVING  SOURCE-SINK MIX IN MODEL GWT_P06-MF6      PACKAGE GWT_P06-MF6     CONNECTED TO MODEL GWT_P06-MF6      PACKAGE SSM              ON UNIT   1029 AT TIME STEP     46, STRESS PERIOD      2
1
  CONCENTRATION IN LAYER   1 AT END OF TIME STEP  46 IN STRESS PERIOD    2
  ---------------------------------------------------------------------------

                1               2               3               4               5               6               7               8               9              10
               11              12              13              14              15              16              17              18              19              20
               21              22              23              24              25              26              27              28              29              30
               31
 ................................................................................................................................................................................................................................................................................................................................................................................................................................................................................................................
   1      0.00000        1.524431E-44    3.969335E-42   -2.430589E-40   -3.215763E-37   -8.010711E-35   -1.148350E-32   -1.107225E-30   -7.578772E-29   -3.752313E-27
        -1.342506E-25   -3.424680E-24   -6.163395E-23   -7.966578E-22   -6.978985E-21   -4.073439E-20   -6.978820E-21   -7.965768E-22   -6.161406E-23   -3.421560E-24
        -1.339581E-25   -3.735730E-27   -7.518797E-29   -1.092753E-30   -1.124414E-32   -7.737369E-35   -3.003383E-37   -1.358445E-40    4.286600E-42    1.567499E-44
          0.00000    
   2     1.524431E-44    3.300156E-42    1.105120E-40   -1.732497E-37   -5.510165E-35   -9.229237E-33   -1.022391E-30   -8.047938E-29   -4.633510E-27   -1.968213E-25
        -6.140573E-24   -1.389405E-22   -2.264693E-21   -2.697579E-20   -2.104037E-19   -1.025619E-18   -2.103992E-19   -2.697342E-20   -2.264061E-21   -1.388283E-22
        -6.128524E-24   -1.960385E-25   -4.600947E-27   -7.956705E-29   -1.004596E-30   -8.983779E-33   -5.271195E-35   -1.571761E-37    1.819532E-40    3.499581E-42
         1.568139E-44
   3     3.969335E-42    1.105120E-40   -1.306498E-37   -4.316741E-35   -7.748098E-33   -9.373098E-31   -8.170087E-29   -5.278384E-27   -2.555485E-25   -9.273285E-24
        -2.502849E-22   -4.970906E-21   -7.274090E-20   -7.964172E-19   -5.645922E-18   -2.198386E-17   -5.645816E-18   -7.963589E-19   -7.272382E-20   -4.967384E-21
        -2.498434E-22   -9.240076E-24   -2.539527E-25   -5.226446E-27   -8.050765E-29   -9.174654E-31   -7.506237E-33   -4.100033E-35   -1.163270E-37    1.828793E-40
         4.294832E-42
   4    -2.430589E-40   -1.732497E-37   -4.316741E-35   -7.223155E-33   -8.822575E-31   -8.090411E-29   -5.641655E-27   -3.005605E-25   -1.221841E-23   -3.767773E-22
        -8.739024E-21   -1.516828E-19   -1.977402E-18   -1.853581E-17   -1.015630E-16   -2.057611E-16   -1.015607E-16   -1.853471E-17   -1.977043E-18   -1.515932E-19
        -8.725446E-21   -3.755710E-22   -1.215079E-23   -2.979956E-25   -5.572355E-27   -7.952310E-29   -8.614680E-31   -6.982230E-33   -4.096786E-35   -1.567271E-37
        -1.315535E-40
   5    -3.215763E-37   -5.510165E-35   -7.748098E-33   -8.822575E-31   -8.033239E-29   -5.791973E-27   -3.280672E-25   -1.448614E-23   -4.946652E-22   -1.297238E-20
        -2.605924E-19   -3.983347E-18   -4.150018E-17   -1.123306E-16    7.082932E-15    8.859002E-14    7.082986E-15   -1.123060E-16   -4.149440E-17   -3.981646E-18
        -2.602607E-19   -1.293635E-20   -4.922700E-22   -1.437955E-23   -3.246839E-25   -5.711863E-27   -7.886982E-29   -8.610925E-31   -7.498191E-33   -5.260140E-35
        -2.991073E-37
   6    -8.010711E-35   -9.229237E-33   -9.373098E-31   -8.090411E-29   -5.791973E-27   -3.372059E-25   -1.571286E-23   -5.786923E-22   -1.671768E-20   -3.786083E-19
        -6.600089E-18   -6.715867E-17    1.016929E-15    7.980702E-14    1.830297E-12    1.616050E-11    1.830298E-12    7.980744E-14    1.017040E-15   -6.713729E-17
        -6.594199E-18   -3.777710E-19   -1.664964E-20   -5.750954E-22   -1.557840E-23   -3.334474E-25   -5.710104E-27   -7.946744E-29   -9.163601E-31   -8.966903E-33
        -7.715431E-35
   7    -1.148350E-32   -1.022391E-30   -8.170087E-29   -5.641655E-27   -3.280672E-25   -1.571286E-23   -6.091731E-22   -1.893424E-20   -4.714754E-19   -9.060790E-18
        -7.297899E-17    5.348387E-15    3.889791E-13    1.334809E-11    2.532095E-10    2.058194E-09    2.532095E-10    1.334809E-11    3.889803E-13    5.348592E-15
        -7.291617E-17   -9.047035E-18   -4.700131E-19   -1.883997E-20   -6.049843E-22   -1.557479E-23   -3.245175E-25   -5.567663E-27   -8.040843E-29   -1.002884E-30
        -1.121841E-32
   8    -1.107225E-30   -8.047938E-29   -5.278384E-27   -3.005605E-25   -1.448614E-23   -5.786923E-22   -1.893424E-20   -5.068788E-19   -1.054028E-17   -5.587691E-17
         1.317497E-14    1.098834E-12    5.114834E-11    1.516120E-09    2.651289E-08    2.017692E-07    2.651289E-08    1.516119E-09    5.114835E-11    1.098834E-12
         1.317529E-14   -5.574946E-17   -1.051886E-17   -5.050783E-19   -1.883682E-20   -5.748772E-22   -1.437071E-23   -2.977356E-25   -5.220390E-27   -7.944900E-29
        -1.090720E-30
   9    -7.578772E-29   -4.633510E-27   -2.555485E-25   -1.221841E-23   -4.946652E-22   -1.671768E-20   -4.714754E-19   -1.054028E-17   -4.375186E-17    2.000364E-14
         1.989687E-12    1.185273E-10    4.812219E-09    1.295137E-07    2.080998E-06    1.464516E-05    2.080998E-06    1.295137E-07    4.812219E-09    1.185273E-10
         1.989684E-12    2.000406E-14   -4.358448E-17   -1.051796E-17   -4.699018E-19   -1.664264E-20   -4.919716E-22   -1.214118E-23   -2.537025E-25   -4.595442E-27
        -7.508026E-29
  10    -3.752313E-27   -1.968213E-25   -9.273285E-24   -3.767773E-22   -1.297238E-20   -3.786083E-19   -9.060790E-18   -5.587691E-17    2.000364E-14    2.414403E-12
         1.777422E-10    9.226268E-09    3.340235E-07    8.020691E-06    1.155890E-04    7.355217E-04    1.155890E-04    8.020691E-06    3.340235E-07    9.226268E-09
         1.777423E-10    2.414398E-12    2.000405E-14   -5.573855E-17   -9.045273E-18   -3.776417E-19   -1.293007E-20   -3.753414E-22   -9.233313E-24   -1.958704E-25
        -3.732006E-27
  11    -1.342506E-25   -6.140573E-24   -2.502849E-22   -8.739024E-21   -2.605924E-19   -6.600089E-18   -7.297899E-17    1.317497E-14    1.989687E-12    1.777422E-10
         1.138741E-08    5.208052E-07    1.637754E-05    3.376202E-04    4.192680E-03    2.328703E-02    4.192680E-03    3.376202E-04    1.637754E-05    5.208052E-07
         1.138741E-08    1.777423E-10    1.989683E-12    1.317527E-14   -7.290620E-17   -6.592979E-18   -2.601851E-19   -8.722166E-21   -2.497317E-22   -6.125359E-24
        -1.338787E-25
  12    -3.424680E-24   -1.389405E-22   -4.970906E-21   -1.516828E-19   -3.983347E-18   -6.715867E-17    5.348387E-15    1.098834E-12    1.185273E-10    9.226268E-09
         5.208052E-07    2.047143E-05    5.347550E-04    8.906056E-03    8.925500E-02    0.407966        8.925500E-02    8.906056E-03    5.347550E-04    2.047143E-05
         5.208052E-07    9.226269E-09    1.185273E-10    1.098833E-12    5.348597E-15   -6.713289E-17   -3.981203E-18   -1.515683E-19   -4.966368E-21   -1.387949E-22
        -3.420608E-24
  13    -6.163395E-23   -2.264693E-21   -7.274090E-20   -1.977402E-18   -4.150018E-17    1.016929E-15    3.889791E-13    5.114834E-11    4.812219E-09    3.340235E-07
         1.637754E-05    5.347550E-04    1.094475E-02    0.134469        0.978472         3.34468        0.978472        0.134469        1.094475E-02    5.347550E-04
         1.637754E-05    3.340235E-07    4.812219E-09    5.114835E-11    3.889803E-13    1.017055E-15   -4.149319E-17   -1.976953E-18   -7.271922E-20   -2.263884E-21
        -6.160833E-23
  14    -7.966578E-22   -2.697579E-20   -7.964172E-19   -1.853581E-17   -1.123306E-16    7.980702E-14    1.334809E-11    1.516120E-09    1.295137E-07    8.020691E-06
         3.376202E-04    8.906056E-03    0.134469         1.09382         5.02761         11.5931         5.02761         1.09382        0.134469        8.906056E-03
         3.376202E-04    8.020691E-06    1.295137E-07    1.516119E-09    1.334809E-11    7.980750E-14   -1.123022E-16   -1.853451E-17   -7.963476E-19   -2.697294E-20
        -7.965598E-22
  15    -6.978985E-21   -2.104037E-19   -5.645922E-18   -1.015630E-16    7.082932E-15    1.830297E-12    2.532095E-10    2.651289E-08    2.080998E-06    1.155890E-04
         4.192680E-03    8.925500E-02    0.978472         5.02761         14.5069         20.4198         14.5069         5.02761        0.978472        8.925500E-02
         4.192680E-03    1.155890E-04    2.080998E-06    2.651289E-08    2.532095E-10    1.830298E-12    7.082994E-15   -1.015604E-16   -5.645803E-18   -2.103987E-19
        -6.978801E-21
  16    -4.073439E-20   -1.025619E-18   -2.198386E-17   -2.057611E-16    8.859002E-14    1.616050E-11    2.058194E-09    2.017692E-07    1.464516E-05    7.355217E-04
         2.328703E-02    0.407966         3.34468         11.5931         20.4198         26.8106         20.4198         11.5931         3.34468        0.407966    
         2.328703E-02    7.355217E-04    1.464516E-05    2.017692E-07    2.058194E-09    1.616050E-11    8.859003E-14   -2.057611E-16   -2.198386E-17   -1.025619E-18
        -4.073439E-20
  17    -6.978820E-21   -2.103992E-19   -5.645816E-18   -1.015607E-16    7.082986E-15    1.830298E-12    2.532095E-10    2.651289E-08    2.080998E-06    1.155890E-04
         4.192680E-03    8.925500E-02    0.978472         5.02761         14.5069         20.4198         14.5069         5.02761        0.978472        8.925500E-02
         4.192680E-03    1.155890E-04    2.080998E-06    2.651289E-08    2.532095E-10    1.830297E-12    7.082932E-15   -1.015630E-16   -5.645921E-18   -2.104037E-19
        -6.978984E-21
  18    -7.965768E-22   -2.697342E-20   -7.963589E-19   -1.853471E-17   -1.123060E-16    7.980744E-14    1.334809E-11    1.516119E-09    1.295137E-07    8.020691E-06
         3.376202E-04    8.906056E-03    0.134469         1.09382         5.02761         11.5931         5.02761         1.09382        0.134469        8.906056E-03
         3.376202E-04    8.020691E-06    1.295137E-07    1.516120E-09    1.334809E-11    7.980702E-14   -1.123305E-16   -1.853581E-17   -7.964172E-19   -2.697579E-20
        -7.966578E-22
  19    -6.161406E-23   -2.264061E-21   -7.272382E-20   -1.977043E-18   -4.149440E-17    1.017040E-15    3.889803E-13    5.114835E-11    4.812219E-09    3.340235E-07
         1.637754E-05    5.347550E-04    1.094475E-02    0.134469        0.978472         3.34468        0.978472        0.134469        1.094475E-02    5.347550E-04
         1.637754E-05    3.340235E-07    4.812219E-09    5.114834E-11    3.889791E-13    1.016929E-15   -4.150018E-17   -1.977402E-18   -7.274090E-20   -2.264693E-21
        -6.163395E-23
  20    -3.421560E-24   -1.388283E-22   -4.967384E-21   -1.515932E-19   -3.981646E-18   -6.713729E-17    5.348592E-15    1.098834E-12    1.185273E-10    9.226268E-09
         5.208052E-07    2.047143E-05    5.347550E-04    8.906056E-03    8.925500E-02    0.407966        8.925500E-02    8.906056E-03    5.347550E-04    2.047143E-05
         5.208052E-07    9.226268E-09    1.185273E-10    1.098834E-12    5.348387E-15   -6.715867E-17   -3.983347E-18   -1.516828E-19   -4.970906E-21   -1.389405E-22
        -3.424680E-24
  21    -1.339581E-25   -6.128524E-24   -2.498434E-22   -8.725446E-21   -2.602607E-19   -6.594199E-18   -7.291617E-17    1.317529E-14    1.989684E-12    1.777423E-10
         1.138741E-08    5.208052E-07    1.637754E-05    3.376202E-04    4.192680E-03    2.328703E-02    4.192680E-03    3.376202E-04    1.637754E-05    5.208052E-07
         1.138741E-08    1.777422E-10    1.989687E-12    1.317497E-14   -7.297899E-17   -6.600089E-18   -2.605924E-19   -8.739024E-21   -2.502849E-22   -6.140573E-24
        -1.342506E-25
  22    -3.735730E-27   -1.960385E-25   -9.240076E-24   -3.755710E-22   -1.293635E-20   -3.777710E-19   -9.047035E-18   -5.574946E-17    2.000406E-14    2.414398E-12
         1.777423E-10    9.226269E-09    3.340235E-07    8.020691E-06    1.155890E-04    7.355217E-04    1.155890E-04    8.020691E-06    3.340235E-07    9.226268E-09
         1.777422E-10    2.414403E-12    2.000364E-14   -5.587691E-17   -9.060790E-18   -3.786083E-19   -1.297238E-20   -3.767773E-22   -9.273285E-24   -1.968213E-25
        -3.752313E-27
  23    -7.518797E-29   -4.600947E-27   -2.539527E-25   -1.215079E-23   -4.922700E-22   -1.664964E-20   -4.700131E-19   -1.051886E-17   -4.358448E-17    2.000405E-14
         1.989683E-12    1.185273E-10    4.812219E-09    1.295137E-07    2.080998E-06    1.464516E-05    2.080998E-06    1.295137E-07    4.812219E-09    1.185273E-10
         1.989687E-12    2.000364E-14   -4.375186E-17   -1.054028E-17   -4.714754E-19   -1.671768E-20   -4.946652E-22   -1.221841E-23   -2.555485E-25   -4.633510E-27
        -7.578772E-29
  24    -1.092753E-30   -7.956705E-29   -5.226446E-27   -2.979956E-25   -1.437955E-23   -5.750954E-22   -1.883997E-20   -5.050783E-19   -1.051796E-17   -5.573855E-17
         1.317527E-14    1.098833E-12    5.114835E-11    1.516119E-09    2.651289E-08    2.017692E-07    2.651289E-08    1.516120E-09    5.114834E-11    1.098834E-12
         1.317497E-14   -5.587691E-17   -1.054028E-17   -5.068788E-19   -1.893424E-20   -5.786923E-22   -1.448614E-23   -3.005605E-25   -5.278384E-27   -8.047938E-29
        -1.107225E-30
  25    -1.124414E-32   -1.004596E-30   -8.050765E-29   -5.572355E-27   -3.246839E-25   -1.557840E-23   -6.049843E-22   -1.883682E-20   -4.699018E-19   -9.045273E-18
        -7.290620E-17    5.348597E-15    3.889803E-13    1.334809E-11    2.532095E-10    2.058194E-09    2.532095E-10    1.334809E-11    3.889791E-13    5.348387E-15
        -7.297899E-17   -9.060790E-18   -4.714754E-19   -1.893424E-20   -6.091731E-22   -1.571286E-23   -3.280672E-25   -5.641655E-27   -8.170087E-29   -1.022391E-30
        -1.148350E-32
  26    -7.737369E-35   -8.983779E-33   -9.174654E-31   -7.952310E-29   -5.711863E-27   -3.334474E-25   -1.557479E-23   -5.748772E-22   -1.664264E-20   -3.776417E-19
        -6.592979E-18   -6.713289E-17    1.017055E-15    7.980750E-14    1.830298E-12    1.616050E-11    1.830297E-12    7.980702E-14    1.016929E-15   -6.715867E-17
        -6.600089E-18   -3.786083E-19   -1.671768E-20   -5.786923E-22   -1.571286E-23   -3.372059E-25   -5.791973E-27   -8.090411E-29   -9.373098E-31   -9.229237E-33
        -8.010711E-35
  27    -3.003383E-37   -5.271195E-35   -7.506237E-33   -8.614680E-31   -7.886982E-29   -5.710104E-27   -3.245175E-25   -1.437071E-23   -4.919716E-22   -1.293007E-20
        -2.601851E-19   -3.981203E-18   -4.149319E-17   -1.123022E-16    7.082994E-15    8.859003E-14    7.082932E-15   -1.123305E-16   -4.150018E-17   -3.983347E-18
        -2.605924E-19   -1.297238E-20   -4.946652E-22   -1.448614E-23   -3.280672E-25   -5.791973E-27   -8.033239E-29   -8.822575E-31   -7.748098E-33   -5.510165E-35
        -3.215763E-37
  28    -1.358445E-40   -1.571761E-37   -4.100033E-35   -6.982230E-33   -8.610925E-31   -7.946744E-29   -5.567663E-27   -2.977356E-25   -1.214118E-23   -3.753414E-22
        -8.722166E-21   -1.515683E-19   -1.976953E-18   -1.853451E-17   -1.015604E-16   -2.057611E-16   -1.015630E-16   -1.853581E-17   -1.977402E-18   -1.516828E-19
        -8.739024E-21   -3.767773E-22   -1.221841E-23   -3.005605E-25   -5.641655E-27   -8.090411E-29   -8.822575E-31   -7.223155E-33   -4.316741E-35   -1.732497E-37
        -2.430589E-40
  29     4.286600E-42    1.819532E-40   -1.163270E-37   -4.096786E-35   -7.498191E-33   -9.163601E-31   -8.040843E-29   -5.220390E-27   -2.537025E-25   -9.233313E-24
        -2.497317E-22   -4.966368E-21   -7.271922E-20   -7.963476E-19   -5.645803E-18   -2.198386E-17   -5.645921E-18   -7.964172E-19   -7.274090E-20   -4.970906E-21
        -2.502849E-22   -9.273285E-24   -2.555485E-25   -5.278384E-27   -8.170087E-29   -9.373098E-31   -7.748098E-33   -4.316741E-35   -1.306498E-37    1.105120E-40
         3.969335E-42
  30     1.567499E-44    3.499581E-42    1.828793E-40   -1.567271E-37   -5.260140E-35   -8.966903E-33   -1.002884E-30   -7.944900E-29   -4.595442E-27   -1.958704E-25
        -6.125359E-24   -1.387949E-22   -2.263884E-21   -2.697294E-20   -2.103987E-19   -1.025619E-18   -2.104037E-19   -2.697579E-20   -2.264693E-21   -1.389405E-22
        -6.140573E-24   -1.968213E-25   -4.633510E-27   -8.047938E-29   -1.022391E-30   -9.229237E-33   -5.510165E-35   -1.732497E-37    1.105120E-40    3.300156E-42
         1.524431E-44
  31      0.00000        1.568139E-44    4.294832E-42   -1.315535E-40   -2.991073E-37   -7.715431E-35   -1.121841E-32   -1.090720E-30   -7.508026E-29   -3.732006E-27
        -1.338787E-25   -3.420608E-24   -6.160833E-23   -7.965598E-22   -6.978801E-21   -4.073439E-20   -6.978984E-21   -7.966578E-22   -6.163395E-23   -3.424680E-24
        -1.342506E-25   -3.752313E-27   -7.578772E-29   -1.107225E-30   -1.148350E-32   -8.010711E-35   -3.215763E-37   -2.430589E-40    3.969335E-42    1.524431E-44
          0.00000    

 CONCENTRATION WILL BE SAVED ON UNIT 1030 AT END OF TIME STEP   46, STRESS PERIOD    2


  MASS BUDGET FOR ENTIRE MODEL AT END OF TIME STEP   46, STRESS PERIOD   2
  ---------------------------------------------------------------------------------------------------

     CUMULATIVE MASS      M       RATES FOR THIS TIME STEP      M/T          PACKAGE NAME    
     ------------------                 ------------------------                     ----------------

           IN:                                      IN:
           ---                                      ---
     STORAGE-AQUEOUS =  6287662778.4684       STORAGE-AQUEOUS =     2316574.9662     MST                              
                 WEL =  7884000000.0000                   WEL =           0.0000     SSM_WEL-1                        
                 CHD =           0.0000                   CHD =           0.0000     SSM_CHD-1                        

            TOTAL IN = 14171662778.4684              TOTAL IN =     2316574.9662

          OUT:                                     OUT:
          ----                                     ----
     STORAGE-AQUEOUS =  7888682751.6909       STORAGE-AQUEOUS =         140.9498     MST                              
                 WEL =  6282980026.7776                   WEL =     2316434.0165     SSM_WEL-1                        
                 CHD =       7.5562E-18                   CHD =           0.0000     SSM_CHD-1                        

           TOTAL OUT = 14171662778.4685             TOTAL OUT =     2316574.9662

            IN - OUT =      -8.3923E-05              IN - OUT =      -6.8452E-08

 PERCENT DISCREPANCY =          -0.00     PERCENT DISCREPANCY =          -0.00




         TIME SUMMARY AT END OF TIME STEP   46 IN STRESS PERIOD    2
                    SECONDS     MINUTES      HOURS       DAYS        YEARS
                    -----------------------------------------------------------
   TIME STEP LENGTH 2.16991E+06  36165.      602.75      25.115     6.87602E-02
 STRESS PERIOD TIME 9.98158E+07 1.66360E+06  27727.      1155.3      3.1630    
         TOTAL TIME 1.78656E+08 2.97760E+06  49627.      2067.8      5.6613    


end timestep


start timestep kper="2" kstp="47" mode="normal"

 UBDSV1 SAVING  STORAGE-AQUEOUS ON UNIT   1029 AT TIME STEP     47, STRESS PERIOD      2
 UBDSV1 SAVING     FLOW-JA-FACE ON UNIT   1029 AT TIME STEP     47, STRESS PERIOD      2
 UBDSV06 SAVING  SOURCE-SINK MIX IN MODEL GWT_P06-MF6      PACKAGE GWT_P06-MF6     CONNECTED TO MODEL GWT_P06-MF6      PACKAGE SSM              ON UNIT   1029 AT TIME STEP     47, STRESS PERIOD      2
1
  CONCENTRATION IN LAYER   1 AT END OF TIME STEP  47 IN STRESS PERIOD    2
  ---------------------------------------------------------------------------

                1               2               3               4               5               6               7               8               9              10
               11              12              13              14              15              16              17              18              19              20
               21              22              23              24              25              26              27              28              29              30
               31
 ................................................................................................................................................................................................................................................................................................................................................................................................................................................................................................................
   1      0.00000        1.570497E-44    3.930196E-42   -3.351697E-40   -3.526716E-37   -8.578086E-35   -1.215462E-32   -1.162258E-30   -7.900502E-29   -3.887428E-27
        -1.383081E-25   -3.511241E-24   -6.295611E-23   -8.110229E-22   -7.079534E-21   -4.106484E-20   -7.079369E-21   -8.109410E-22   -6.293595E-23   -3.508070E-24
        -1.380097E-25   -3.870436E-27   -7.838750E-29   -1.147279E-30   -1.190552E-32   -8.292024E-35   -3.303120E-37   -2.215353E-40    4.269325E-42    1.617153E-44
          0.00000    
   2     1.570497E-44    3.307863E-42    6.577478E-41   -1.916952E-37   -5.901990E-35   -9.763153E-33   -1.072840E-30   -8.390174E-29   -4.802536E-27   -2.029032E-25
        -6.298842E-24   -1.419042E-22   -2.305123E-21   -2.736843E-20   -2.128265E-19   -1.031328E-18   -2.128220E-19   -2.736603E-20   -2.304485E-21   -1.417905E-22
        -6.286593E-24   -2.021040E-25   -4.769142E-27   -8.296181E-29   -1.054419E-30   -9.507871E-33   -5.652252E-35   -1.748098E-37    1.412930E-40    3.520608E-42
         1.617854E-44
   3     3.930196E-42    6.577478E-41   -1.454201E-37   -4.624955E-35   -8.191201E-33   -9.829612E-31   -8.514642E-29   -5.470862E-27   -2.635169E-25   -9.516370E-24
        -2.557056E-22   -5.059392E-21   -7.380827E-20   -8.047645E-19   -5.674583E-18   -2.190911E-17   -5.674477E-18   -8.047060E-19   -7.379107E-20   -5.055837E-21
        -2.552583E-22   -9.482587E-24   -2.618866E-25   -5.417571E-27   -8.391683E-29   -9.624250E-31   -7.939842E-33   -4.398722E-35   -1.303884E-37    1.422815E-40
         4.278222E-42
   4    -3.351697E-40   -1.916952E-37   -4.624955E-35   -7.634079E-33   -9.247890E-31   -8.428028E-29   -5.845921E-27   -3.099232E-25   -1.254102E-23   -3.850711E-22
        -8.897850E-21   -1.539363E-19   -1.996990E-18   -1.847466E-17   -9.544874E-17   -1.399901E-16   -9.544648E-17   -1.847355E-17   -1.996630E-18   -1.538462E-19
        -8.884146E-21   -3.838485E-22   -1.247220E-23   -3.073014E-25   -5.774794E-27   -8.285719E-29   -9.032802E-31   -7.383767E-33   -4.395312E-35   -1.743347E-37
        -2.169468E-40
   5    -3.526716E-37   -5.901990E-35   -8.191201E-33   -9.247890E-31   -8.366910E-29   -6.000406E-27   -3.382426E-25   -1.486890E-23   -5.056611E-22   -1.321335E-20
        -2.645068E-19   -4.011482E-18   -4.030760E-17   -4.585191E-17    8.407108E-15    9.929272E-14    8.407163E-15   -4.582727E-17   -4.030178E-17   -4.009778E-18
        -2.641734E-19   -1.317698E-20   -5.032325E-22   -1.476037E-23   -3.347834E-25   -5.918175E-27   -8.216197E-29   -9.028903E-31   -7.931442E-33   -5.640633E-35
        -3.290071E-37
   6    -8.578086E-35   -9.763153E-33   -9.829612E-31   -8.428028E-29   -6.000406E-27   -3.476422E-25   -1.612754E-23   -5.916080E-22   -1.703218E-20   -3.842374E-19
        -6.614462E-18   -6.151593E-17    1.356282E-15    9.027176E-14    2.013266E-12    1.753190E-11    2.013267E-12    9.027218E-14    1.356393E-15   -6.149453E-17
        -6.608570E-18   -3.833959E-19   -1.696348E-20   -5.879599E-22   -1.599060E-23   -3.437989E-25   -5.916367E-27   -8.279968E-29   -9.612774E-31   -9.490245E-33
        -8.268946E-35
   7    -1.215462E-32   -1.072840E-30   -8.514642E-29   -5.845921E-27   -3.382426E-25   -1.612754E-23   -6.227819E-22   -1.929215E-20   -4.783382E-19   -9.031411E-18
        -5.801822E-17    6.403609E-15    4.338424E-13    1.458016E-11    2.730510E-10    2.195244E-09    2.730510E-10    1.458016E-11    4.338436E-13    6.403811E-15
        -5.795562E-17   -9.017662E-18   -4.768686E-19   -1.919694E-20   -6.185329E-22   -1.598692E-23   -3.346130E-25   -5.769969E-27   -8.381433E-29   -1.052642E-30
        -1.187864E-32
   8    -1.162258E-30   -8.390174E-29   -5.470862E-27   -3.099232E-25   -1.486890E-23   -5.916080E-22   -1.929215E-20   -5.141806E-19   -1.046794E-17   -2.994915E-17
         1.534653E-14    1.217710E-12    5.563155E-11    1.627177E-09    2.812303E-08    2.117136E-07    2.812303E-08    1.627177E-09    5.563155E-11    1.217710E-12
         1.534685E-14   -2.982238E-17   -1.044653E-17   -5.123710E-19   -1.919376E-20   -5.877385E-22   -1.475135E-23   -3.070354E-25   -5.411347E-27   -8.283993E-29
        -1.145169E-30
   9    -7.900502E-29   -4.802536E-27   -2.635169E-25   -1.254102E-23   -5.056611E-22   -1.703218E-20   -4.783382E-19   -1.046794E-17   -1.275902E-17    2.308921E-14
         2.198011E-12    1.285594E-10    5.145745E-09    1.367026E-07    2.170618E-06    1.511036E-05    2.170618E-06    1.367026E-07    5.145745E-09    1.285594E-10
         2.198008E-12    2.308963E-14   -1.259267E-17   -1.044563E-17   -4.767568E-19   -1.695641E-20   -5.029298E-22   -1.246241E-23   -2.616307E-25   -4.763489E-27
        -7.827641E-29
  10    -3.887428E-27   -2.029032E-25   -9.516370E-24   -3.850711E-22   -1.321335E-20   -3.842374E-19   -9.031411E-18   -2.994915E-17    2.308921E-14    2.664635E-12
         1.925176E-10    9.842294E-09    3.512389E-07    8.321825E-06    1.184987E-04    7.459526E-04    1.184987E-04    8.321825E-06    3.512389E-07    9.842294E-09
         1.925176E-10    2.664630E-12    2.308962E-14   -2.981161E-17   -9.015904E-18   -3.832659E-19   -1.317064E-20   -3.836157E-22   -9.475705E-24   -2.019322E-25
        -3.866618E-27
  11    -1.383081E-25   -6.298842E-24   -2.557056E-22   -8.897850E-21   -2.645068E-19   -6.614462E-18   -5.801822E-17    1.534653E-14    2.198011E-12    1.925176E-10
         1.213775E-08    5.465198E-07    1.692886E-05    3.441872E-04    4.223404E-03    2.321584E-02    4.223404E-03    3.441872E-04    1.692886E-05    5.465198E-07
         1.213775E-08    1.925176E-10    2.198007E-12    1.534682E-14   -5.794575E-17   -6.607353E-18   -2.640975E-19   -8.880836E-21   -2.551452E-22   -6.283376E-24
        -1.379288E-25
  12    -3.511241E-24   -1.419042E-22   -5.059392E-21   -1.539363E-19   -4.011482E-18   -6.151593E-17    6.403609E-15    1.217710E-12    1.285594E-10    9.842294E-09
         5.465198E-07    2.113172E-05    5.433182E-04    8.921033E-03    8.837849E-02    0.400230        8.837849E-02    8.921033E-03    5.433182E-04    2.113172E-05
         5.465198E-07    9.842294E-09    1.285594E-10    1.217709E-12    6.403816E-15   -6.149015E-17   -4.009336E-18   -1.538212E-19   -5.054812E-21   -1.417568E-22
        -3.507104E-24
  13    -6.295611E-23   -2.305123E-21   -7.380827E-20   -1.996990E-18   -4.030760E-17    1.356282E-15    4.338424E-13    5.563155E-11    5.145745E-09    3.512389E-07
         1.692886E-05    5.433182E-04    1.093834E-02    0.132498        0.954389         3.24079        0.954389        0.132498        1.093834E-02    5.433182E-04
         1.692886E-05    3.512389E-07    5.145745E-09    5.563156E-11    4.338436E-13    1.356408E-15   -4.030057E-17   -1.996538E-18   -7.378645E-20   -2.304306E-21
        -6.293015E-23
  14    -8.110229E-22   -2.736843E-20   -8.047645E-19   -1.847466E-17   -4.585191E-17    9.027176E-14    1.458016E-11    1.627177E-09    1.367026E-07    8.321825E-06
         3.441872E-04    8.921033E-03    0.132498         1.06398         4.85754         11.1743         4.85754         1.06398        0.132498        8.921033E-03
         3.441872E-04    8.321825E-06    1.367026E-07    1.627177E-09    1.458016E-11    9.027223E-14   -4.582341E-17   -1.847335E-17   -8.046946E-19   -2.736555E-20
        -8.109238E-22
  15    -7.079534E-21   -2.128265E-19   -5.674583E-18   -9.544874E-17    8.407108E-15    2.013266E-12    2.730510E-10    2.812303E-08    2.170618E-06    1.184987E-04
         4.223404E-03    8.837849E-02    0.954389         4.85754         13.9882         19.6694         13.9882         4.85754        0.954389        8.837849E-02
         4.223404E-03    1.184987E-04    2.170618E-06    2.812303E-08    2.730510E-10    2.013267E-12    8.407170E-15   -9.544618E-17   -5.674464E-18   -2.128214E-19
        -7.079349E-21
  16    -4.106484E-20   -1.031328E-18   -2.190911E-17   -1.399901E-16    9.929272E-14    1.753190E-11    2.195244E-09    2.117136E-07    1.511036E-05    7.459526E-04
         2.321584E-02    0.400230         3.24079         11.1743         19.6694         25.8216         19.6694         11.1743         3.24079        0.400230    
         2.321584E-02    7.459526E-04    1.511036E-05    2.117136E-07    2.195244E-09    1.753190E-11    9.929272E-14   -1.399901E-16   -2.190912E-17   -1.031328E-18
        -4.106484E-20
  17    -7.079369E-21   -2.128220E-19   -5.674477E-18   -9.544648E-17    8.407163E-15    2.013267E-12    2.730510E-10    2.812303E-08    2.170618E-06    1.184987E-04
         4.223404E-03    8.837849E-02    0.954389         4.85754         13.9882         19.6694         13.9882         4.85754        0.954389        8.837849E-02
         4.223404E-03    1.184987E-04    2.170618E-06    2.812303E-08    2.730510E-10    2.013266E-12    8.407109E-15   -9.544874E-17   -5.674583E-18   -2.128265E-19
        -7.079534E-21
  18    -8.109410E-22   -2.736603E-20   -8.047060E-19   -1.847355E-17   -4.582727E-17    9.027218E-14    1.458016E-11    1.627177E-09    1.367026E-07    8.321825E-06
         3.441872E-04    8.921033E-03    0.132498         1.06398         4.85754         11.1743         4.85754         1.06398        0.132498        8.921033E-03
         3.441872E-04    8.321825E-06    1.367026E-07    1.627177E-09    1.458016E-11    9.027176E-14   -4.585190E-17   -1.847466E-17   -8.047645E-19   -2.736843E-20
        -8.110229E-22
  19    -6.293595E-23   -2.304485E-21   -7.379107E-20   -1.996630E-18   -4.030178E-17    1.356393E-15    4.338436E-13    5.563155E-11    5.145745E-09    3.512389E-07
         1.692886E-05    5.433182E-04    1.093834E-02    0.132498        0.954389         3.24079        0.954389        0.132498        1.093834E-02    5.433182E-04
         1.692886E-05    3.512389E-07    5.145745E-09    5.563155E-11    4.338424E-13    1.356282E-15   -4.030760E-17   -1.996990E-18   -7.380827E-20   -2.305123E-21
        -6.295611E-23
  20    -3.508070E-24   -1.417905E-22   -5.055837E-21   -1.538462E-19   -4.009778E-18   -6.149453E-17    6.403811E-15    1.217710E-12    1.285594E-10    9.842294E-09
         5.465198E-07    2.113172E-05    5.433182E-04    8.921033E-03    8.837849E-02    0.400230        8.837849E-02    8.921033E-03    5.433182E-04    2.113172E-05
         5.465198E-07    9.842294E-09    1.285594E-10    1.217710E-12    6.403609E-15   -6.151593E-17   -4.011481E-18   -1.539363E-19   -5.059392E-21   -1.419042E-22
        -3.511241E-24
  21    -1.380097E-25   -6.286593E-24   -2.552583E-22   -8.884146E-21   -2.641734E-19   -6.608570E-18   -5.795562E-17    1.534685E-14    2.198008E-12    1.925176E-10
         1.213775E-08    5.465198E-07    1.692886E-05    3.441872E-04    4.223404E-03    2.321584E-02    4.223404E-03    3.441872E-04    1.692886E-05    5.465198E-07
         1.213775E-08    1.925176E-10    2.198011E-12    1.534653E-14   -5.801822E-17   -6.614462E-18   -2.645068E-19   -8.897850E-21   -2.557056E-22   -6.298842E-24
        -1.383081E-25
  22    -3.870436E-27   -2.021040E-25   -9.482587E-24   -3.838485E-22   -1.317698E-20   -3.833959E-19   -9.017662E-18   -2.982238E-17    2.308963E-14    2.664630E-12
         1.925176E-10    9.842294E-09    3.512389E-07    8.321825E-06    1.184987E-04    7.459526E-04    1.184987E-04    8.321825E-06    3.512389E-07    9.842294E-09
         1.925176E-10    2.664635E-12    2.308921E-14   -2.994915E-17   -9.031411E-18   -3.842374E-19   -1.321335E-20   -3.850711E-22   -9.516370E-24   -2.029032E-25
        -3.887428E-27
  23    -7.838750E-29   -4.769142E-27   -2.618866E-25   -1.247220E-23   -5.032325E-22   -1.696348E-20   -4.768686E-19   -1.044653E-17   -1.259267E-17    2.308962E-14
         2.198007E-12    1.285594E-10    5.145745E-09    1.367026E-07    2.170618E-06    1.511036E-05    2.170618E-06    1.367026E-07    5.145745E-09    1.285594E-10
         2.198011E-12    2.308921E-14   -1.275902E-17   -1.046794E-17   -4.783382E-19   -1.703218E-20   -5.056611E-22   -1.254102E-23   -2.635169E-25   -4.802536E-27
        -7.900502E-29
  24    -1.147279E-30   -8.296181E-29   -5.417571E-27   -3.073014E-25   -1.476037E-23   -5.879599E-22   -1.919694E-20   -5.123710E-19   -1.044563E-17   -2.981161E-17
         1.534682E-14    1.217709E-12    5.563156E-11    1.627177E-09    2.812303E-08    2.117136E-07    2.812303E-08    1.627177E-09    5.563155E-11    1.217710E-12
         1.534653E-14   -2.994915E-17   -1.046794E-17   -5.141806E-19   -1.929215E-20   -5.916080E-22   -1.486890E-23   -3.099232E-25   -5.470862E-27   -8.390174E-29
        -1.162258E-30
  25    -1.190552E-32   -1.054419E-30   -8.391683E-29   -5.774794E-27   -3.347834E-25   -1.599060E-23   -6.185329E-22   -1.919376E-20   -4.767568E-19   -9.015904E-18
        -5.794575E-17    6.403816E-15    4.338436E-13    1.458016E-11    2.730510E-10    2.195244E-09    2.730510E-10    1.458016E-11    4.338424E-13    6.403609E-15
        -5.801822E-17   -9.031411E-18   -4.783382E-19   -1.929215E-20   -6.227819E-22   -1.612754E-23   -3.382426E-25   -5.845921E-27   -8.514642E-29   -1.072840E-30
        -1.215462E-32
  26    -8.292024E-35   -9.507871E-33   -9.624250E-31   -8.285719E-29   -5.918175E-27   -3.437989E-25   -1.598692E-23   -5.877385E-22   -1.695641E-20   -3.832659E-19
        -6.607353E-18   -6.149015E-17    1.356408E-15    9.027223E-14    2.013267E-12    1.753190E-11    2.013266E-12    9.027176E-14    1.356282E-15   -6.151593E-17
        -6.614462E-18   -3.842374E-19   -1.703218E-20   -5.916080E-22   -1.612754E-23   -3.476422E-25   -6.000406E-27   -8.428028E-29   -9.829612E-31   -9.763153E-33
        -8.578086E-35
  27    -3.303120E-37   -5.652252E-35   -7.939842E-33   -9.032802E-31   -8.216197E-29   -5.916367E-27   -3.346130E-25   -1.475135E-23   -5.029298E-22   -1.317064E-20
        -2.640975E-19   -4.009336E-18   -4.030057E-17   -4.582341E-17    8.407170E-15    9.929272E-14    8.407109E-15   -4.585190E-17   -4.030760E-17   -4.011481E-18
        -2.645068E-19   -1.321335E-20   -5.056611E-22   -1.486890E-23   -3.382426E-25   -6.000406E-27   -8.366910E-29   -9.247890E-31   -8.191201E-33   -5.901990E-35
        -3.526716E-37
  28    -2.215353E-40   -1.748098E-37   -4.398722E-35   -7.383767E-33   -9.028903E-31   -8.279968E-29   -5.769969E-27   -3.070354E-25   -1.246241E-23   -3.836157E-22
        -8.880836E-21   -1.538212E-19   -1.996538E-18   -1.847335E-17   -9.544618E-17   -1.399901E-16   -9.544874E-17   -1.847466E-17   -1.996990E-18   -1.539363E-19
        -8.897850E-21   -3.850711E-22   -1.254102E-23   -3.099232E-25   -5.845921E-27   -8.428028E-29   -9.247890E-31   -7.634079E-33   -4.624955E-35   -1.916952E-37
        -3.351697E-40
  29     4.269325E-42    1.412930E-40   -1.303884E-37   -4.395312E-35   -7.931442E-33   -9.612774E-31   -8.381433E-29   -5.411347E-27   -2.616307E-25   -9.475705E-24
        -2.551452E-22   -5.054812E-21   -7.378645E-20   -8.046946E-19   -5.674464E-18   -2.190912E-17   -5.674583E-18   -8.047645E-19   -7.380827E-20   -5.059392E-21
        -2.557056E-22   -9.516370E-24   -2.635169E-25   -5.470862E-27   -8.514642E-29   -9.829612E-31   -8.191201E-33   -4.624955E-35   -1.454201E-37    6.577480E-41
         3.930196E-42
  30     1.617153E-44    3.520608E-42    1.422815E-40   -1.743347E-37   -5.640633E-35   -9.490245E-33   -1.052642E-30   -8.283993E-29   -4.763489E-27   -2.019322E-25
        -6.283376E-24   -1.417568E-22   -2.304306E-21   -2.736555E-20   -2.128214E-19   -1.031328E-18   -2.128265E-19   -2.736843E-20   -2.305123E-21   -1.419042E-22
        -6.298842E-24   -2.029032E-25   -4.802536E-27   -8.390174E-29   -1.072840E-30   -9.763153E-33   -5.901990E-35   -1.916952E-37    6.577480E-41    3.307864E-42
         1.570497E-44
  31      0.00000        1.617854E-44    4.278222E-42   -2.169468E-40   -3.290071E-37   -8.268946E-35   -1.187864E-32   -1.145169E-30   -7.827641E-29   -3.866618E-27
        -1.379288E-25   -3.507104E-24   -6.293015E-23   -8.109238E-22   -7.079349E-21   -4.106484E-20   -7.079534E-21   -8.110229E-22   -6.295611E-23   -3.511241E-24
        -1.383081E-25   -3.887428E-27   -7.900502E-29   -1.162258E-30   -1.215462E-32   -8.578086E-35   -3.526716E-37   -3.351697E-40    3.930196E-42    1.570497E-44
          0.00000    

 CONCENTRATION WILL BE SAVED ON UNIT 1030 AT END OF TIME STEP   47, STRESS PERIOD    2


  MASS BUDGET FOR ENTIRE MODEL AT END OF TIME STEP   47, STRESS PERIOD   2
  ---------------------------------------------------------------------------------------------------

     CUMULATIVE MASS      M       RATES FOR THIS TIME STEP      M/T          PACKAGE NAME    
     ------------------                 ------------------------                     ----------------

           IN:                                      IN:
           ---                                      ---
     STORAGE-AQUEOUS =  6343696562.8329       STORAGE-AQUEOUS =     2231116.8934     MST                              
                 WEL =  7884000000.0000                   WEL =           0.0000     SSM_WEL-1                        
                 CHD =           0.0000                   CHD =           0.0000     SSM_CHD-1                        

            TOTAL IN = 14227696562.8329              TOTAL IN =     2231116.8934

          OUT:                                     OUT:
          ----                                     ----
     STORAGE-AQUEOUS =  7888685950.4483       STORAGE-AQUEOUS =         127.3661     MST                              
                 WEL =  6339010612.3846                   WEL =     2230989.5274     SSM_WEL-1                        
                 CHD =       7.5562E-18                   CHD =           0.0000     SSM_CHD-1                        

           TOTAL OUT = 14227696562.8330             TOTAL OUT =     2231116.8934

            IN - OUT =      -8.5831E-05              IN - OUT =      -6.3796E-08

 PERCENT DISCREPANCY =          -0.00     PERCENT DISCREPANCY =          -0.00




         TIME SUMMARY AT END OF TIME STEP   47 IN STRESS PERIOD    2
                    SECONDS     MINUTES      HOURS       DAYS        YEARS
                    -----------------------------------------------------------
   TIME STEP LENGTH 2.16991E+06  36165.      602.75      25.115     6.87602E-02
 STRESS PERIOD TIME 1.01986E+08 1.69976E+06  28329.      1180.4      3.2317    
         TOTAL TIME 1.80826E+08 3.01376E+06  50229.      2092.9      5.7300    


end timestep


start timestep kper="2" kstp="48" mode="normal"

 UBDSV1 SAVING  STORAGE-AQUEOUS ON UNIT   1029 AT TIME STEP     48, STRESS PERIOD      2
 UBDSV1 SAVING     FLOW-JA-FACE ON UNIT   1029 AT TIME STEP     48, STRESS PERIOD      2
 UBDSV06 SAVING  SOURCE-SINK MIX IN MODEL GWT_P06-MF6      PACKAGE GWT_P06-MF6     CONNECTED TO MODEL GWT_P06-MF6      PACKAGE SSM              ON UNIT   1029 AT TIME STEP     48, STRESS PERIOD      2
1
  CONCENTRATION IN LAYER   1 AT END OF TIME STEP  48 IN STRESS PERIOD    2
  ---------------------------------------------------------------------------

                1               2               3               4               5               6               7               8               9              10
               11              12              13              14              15              16              17              18              19              20
               21              22              23              24              25              26              27              28              29              30
               31
 ................................................................................................................................................................................................................................................................................................................................................................................................................................................................................................................
   1      0.00000        1.616137E-44    3.873268E-42   -4.360989E-40   -3.859224E-37   -9.177847E-35   -1.285833E-32   -1.219578E-30   -8.233594E-29   -4.026545E-27
        -1.424652E-25   -3.599559E-24   -6.430036E-23   -8.255761E-22   -7.181004E-21   -4.139637E-20   -7.180836E-21   -8.254932E-22   -6.427993E-23   -3.596336E-24
        -1.421608E-25   -4.009138E-27   -8.170021E-29   -1.204077E-30   -1.259917E-32   -8.878558E-35   -3.623905E-37   -3.157154E-40    4.235533E-42    1.666625E-44
          0.00000    
   2     1.616137E-44    3.306757E-42    1.643025E-41   -2.114207E-37   -6.315919E-35   -1.032274E-32   -1.125378E-30   -8.744567E-29   -4.976637E-27   -2.091366E-25
        -6.460333E-24   -1.449171E-22   -2.346088E-21   -2.776438E-20   -2.152491E-19   -1.036926E-18   -2.152445E-19   -2.776197E-20   -2.345443E-21   -1.448020E-22
        -6.447881E-24   -2.083208E-25   -4.942397E-27   -8.647744E-29   -1.106314E-30   -1.005730E-32   -6.054991E-35   -1.936878E-37    9.622747E-41    3.533574E-42
         1.667391E-44
   3     3.873268E-42    1.643025E-41   -1.612162E-37   -4.950397E-35   -8.655369E-33   -1.030488E-30   -8.871402E-29   -5.669149E-27   -2.716863E-25   -9.764481E-24
        -2.612174E-22   -5.149063E-21   -7.488304E-20   -8.129962E-19   -5.698644E-18   -2.179003E-17   -5.698537E-18   -8.129374E-19   -7.486574E-20   -5.145474E-21
        -2.607643E-22   -9.730118E-24   -2.700209E-25   -5.614475E-27   -8.744713E-29   -1.009239E-30   -8.394189E-33   -4.714271E-35   -1.454448E-37    9.728189E-41
         4.245139E-42
   4    -4.360989E-40   -2.114207E-37   -4.950397E-35   -8.064438E-33   -9.690549E-31   -8.777533E-29   -6.056339E-27   -3.195231E-25   -1.287040E-23   -3.935072E-22
        -9.058792E-21   -1.561961E-19   -2.015471E-18   -1.836325E-17   -8.841116E-17   -6.727547E-17   -8.840889E-17   -1.836213E-17   -2.015109E-18   -1.561055E-19
        -9.044962E-21   -3.922682E-22   -1.280036E-23   -3.168437E-25   -5.983347E-27   -8.630909E-29   -9.468054E-31   -7.804419E-33   -4.710691E-35   -1.931852E-37
        -3.108119E-40
   5    -3.859224E-37   -6.315919E-35   -8.655369E-33   -9.690549E-31   -8.712299E-29   -6.215099E-27   -3.486760E-25   -1.525975E-23   -5.168489E-22   -1.345744E-20
        -2.684027E-19   -4.034514E-18   -3.883936E-17    2.824536E-17    9.852487E-15    1.108370E-13    9.852541E-15    2.826996E-17   -3.883350E-17   -4.032808E-18
        -2.680676E-19   -1.342073E-20   -5.143866E-22   -1.514925E-23   -3.451397E-25   -6.130704E-27   -8.557015E-29   -9.464007E-31   -8.385422E-33   -6.042785E-35
        -3.610080E-37
   6    -9.177847E-35   -1.032274E-32   -1.030488E-30   -8.777533E-29   -6.215099E-27   -3.583430E-25   -1.655102E-23   -6.047511E-22   -1.735057E-20   -3.897873E-19
        -6.614336E-18   -5.493160E-17    1.730794E-15    1.016393E-13    2.209683E-12    1.898780E-11    2.209683E-12    1.016397E-13    1.730903E-15   -5.491018E-17
        -6.608443E-18   -3.889417E-19   -1.728120E-20   -6.010514E-22   -1.641156E-23   -3.544136E-25   -6.128844E-27   -8.624968E-29   -1.008048E-30   -1.003890E-32
        -8.854291E-35
   7    -1.285833E-32   -1.125378E-30   -8.871402E-29   -6.056339E-27   -3.486760E-25   -1.655102E-23   -6.366307E-22   -1.965431E-20   -4.850487E-19   -8.974069E-18
        -4.088322E-17    7.563300E-15    4.823973E-13    1.589666E-11    2.939968E-10    2.338255E-09    2.939968E-10    1.589667E-11    4.823985E-13    7.563500E-15
        -4.082083E-17   -8.960328E-18   -4.835719E-19   -1.955817E-20   -6.323211E-22   -1.640780E-23   -3.449652E-25   -5.978386E-27   -8.734127E-29   -1.104469E-30
        -1.257110E-32
   8    -1.219578E-30   -8.744567E-29   -5.669149E-27   -3.195231E-25   -1.525975E-23   -6.047511E-22   -1.965431E-20   -5.212963E-19   -1.035726E-17   -5.493469E-19
         1.772715E-14    1.346012E-12    6.040330E-11    1.743798E-09    2.979228E-08    2.218966E-07    2.979228E-08    1.743798E-09    6.040331E-11    1.346012E-12
         1.772747E-14   -4.241627E-19   -1.033587E-17   -5.194777E-19   -1.955495E-20   -6.008266E-22   -1.514006E-23   -3.165714E-25   -5.608079E-27   -8.635162E-29
        -1.201889E-30
   9    -8.233594E-29   -4.976637E-27   -2.716863E-25   -1.287040E-23   -5.168489E-22   -1.735057E-20   -4.850487E-19   -1.035726E-17    2.212440E-17    2.646792E-14
         2.422466E-12    1.392066E-10    5.494442E-09    1.441094E-07    2.261670E-06    1.557638E-05    2.261670E-06    1.441094E-07    5.494442E-09    1.392066E-10
         2.422464E-12    2.646832E-14    2.228858E-17   -1.033497E-17   -4.834595E-19   -1.727405E-20   -5.140795E-22   -1.279038E-23   -2.697592E-25   -4.936593E-27
        -8.158565E-29
  10    -4.026545E-27   -2.091366E-25   -9.764481E-24   -3.935072E-22   -1.345744E-20   -3.897873E-19   -8.974069E-18   -5.493469E-19    2.646792E-14    2.934085E-12
         2.081750E-10    1.048443E-08    3.688871E-07    8.625405E-06    1.213812E-04    7.560469E-04    1.213812E-04    8.625405E-06    3.688871E-07    1.048443E-08
         2.081750E-10    2.934081E-12    2.646831E-14   -4.135853E-19   -8.958573E-18   -3.888112E-19   -1.341433E-20   -3.920322E-22   -9.723115E-24   -2.081454E-25
        -4.005223E-27
  11    -1.424652E-25   -6.460333E-24   -2.612174E-22   -9.058792E-21   -2.684027E-19   -6.614336E-18   -4.088322E-17    1.772715E-14    2.422466E-12    2.081750E-10
         1.291907E-08    5.728042E-07    1.748121E-05    3.506091E-04    4.251945E-03    2.313618E-02    4.251945E-03    3.506091E-04    1.748121E-05    5.728042E-07
         1.291907E-08    2.081750E-10    2.422462E-12    1.772744E-14   -4.081107E-17   -6.607228E-18   -2.679914E-19   -9.041622E-21   -2.606497E-22   -6.444611E-24
        -1.420783E-25
  12    -3.599559E-24   -1.449171E-22   -5.149063E-21   -1.561961E-19   -4.034514E-18   -5.493160E-17    7.563300E-15    1.346012E-12    1.392066E-10    1.048443E-08
         5.728042E-07    2.179161E-05    5.516017E-04    8.931451E-03    8.748472E-02    0.392596        8.748472E-02    8.931451E-03    5.516017E-04    2.179161E-05
         5.728042E-07    1.048443E-08    1.392066E-10    1.346011E-12    7.563504E-15   -5.490583E-17   -4.032366E-18   -1.560804E-19   -5.144440E-21   -1.447678E-22
        -3.595354E-24
  13    -6.430036E-23   -2.346088E-21   -7.488304E-20   -2.015471E-18   -3.883936E-17    1.730794E-15    4.823973E-13    6.040330E-11    5.494442E-09    3.688871E-07
         1.748121E-05    5.516017E-04    1.092652E-02    0.130523        0.930859         3.14036        0.930859        0.130523        1.092652E-02    5.516017E-04
         1.748121E-05    3.688871E-07    5.494442E-09    6.040331E-11    4.823985E-13    1.730919E-15   -3.883228E-17   -2.015018E-18   -7.486108E-20   -2.345263E-21
        -6.427405E-23
  14    -8.255761E-22   -2.776438E-20   -8.129962E-19   -1.836325E-17    2.824536E-17    1.016393E-13    1.589666E-11    1.743798E-09    1.441094E-07    8.625405E-06
         3.506091E-04    8.931451E-03    0.130523         1.03494         4.69370         10.7717         4.69370         1.03494        0.130523        8.931451E-03
         3.506091E-04    8.625405E-06    1.441094E-07    1.743798E-09    1.589667E-11    1.016398E-13    2.827379E-17   -1.836193E-17   -8.129259E-19   -2.776148E-20
        -8.254759E-22
  15    -7.181004E-21   -2.152491E-19   -5.698644E-18   -8.841116E-17    9.852487E-15    2.209683E-12    2.939968E-10    2.979228E-08    2.261670E-06    1.213812E-04
         4.251945E-03    8.748472E-02    0.930859         4.69370         13.4888         18.9475         13.4888         4.69370        0.930859        8.748472E-02
         4.251945E-03    1.213812E-04    2.261670E-06    2.979228E-08    2.939968E-10    2.209683E-12    9.852549E-15   -8.840858E-17   -5.698524E-18   -2.152439E-19
        -7.180817E-21
  16    -4.139637E-20   -1.036926E-18   -2.179003E-17   -6.727547E-17    1.108370E-13    1.898780E-11    2.338255E-09    2.218966E-07    1.557638E-05    7.560469E-04
         2.313618E-02    0.392596         3.14036         10.7717         18.9475         24.8696         18.9475         10.7717         3.14036        0.392596    
         2.313618E-02    7.560469E-04    1.557638E-05    2.218966E-07    2.338255E-09    1.898780E-11    1.108370E-13   -6.727547E-17   -2.179003E-17   -1.036926E-18
        -4.139637E-20
  17    -7.180836E-21   -2.152445E-19   -5.698537E-18   -8.840889E-17    9.852541E-15    2.209683E-12    2.939968E-10    2.979228E-08    2.261670E-06    1.213812E-04
         4.251945E-03    8.748472E-02    0.930859         4.69370         13.4888         18.9475         13.4888         4.69370        0.930859        8.748472E-02
         4.251945E-03    1.213812E-04    2.261670E-06    2.979228E-08    2.939968E-10    2.209683E-12    9.852487E-15   -8.841116E-17   -5.698644E-18   -2.152491E-19
        -7.181004E-21
  18    -8.254932E-22   -2.776197E-20   -8.129374E-19   -1.836213E-17    2.826996E-17    1.016397E-13    1.589667E-11    1.743798E-09    1.441094E-07    8.625405E-06
         3.506091E-04    8.931451E-03    0.130523         1.03494         4.69370         10.7717         4.69370         1.03494        0.130523        8.931451E-03
         3.506091E-04    8.625405E-06    1.441094E-07    1.743798E-09    1.589666E-11    1.016393E-13    2.824538E-17   -1.836325E-17   -8.129962E-19   -2.776438E-20
        -8.255760E-22
  19    -6.427993E-23   -2.345443E-21   -7.486574E-20   -2.015109E-18   -3.883350E-17    1.730903E-15    4.823985E-13    6.040331E-11    5.494442E-09    3.688871E-07
         1.748121E-05    5.516017E-04    1.092652E-02    0.130523        0.930859         3.14036        0.930859        0.130523        1.092652E-02    5.516017E-04
         1.748121E-05    3.688871E-07    5.494442E-09    6.040330E-11    4.823973E-13    1.730794E-15   -3.883936E-17   -2.015471E-18   -7.488304E-20   -2.346088E-21
        -6.430036E-23
  20    -3.596336E-24   -1.448020E-22   -5.145474E-21   -1.561055E-19   -4.032808E-18   -5.491018E-17    7.563500E-15    1.346012E-12    1.392066E-10    1.048443E-08
         5.728042E-07    2.179161E-05    5.516017E-04    8.931451E-03    8.748472E-02    0.392596        8.748472E-02    8.931451E-03    5.516017E-04    2.179161E-05
         5.728042E-07    1.048443E-08    1.392066E-10    1.346012E-12    7.563300E-15   -5.493160E-17   -4.034514E-18   -1.561961E-19   -5.149063E-21   -1.449171E-22
        -3.599559E-24
  21    -1.421608E-25   -6.447881E-24   -2.607643E-22   -9.044962E-21   -2.680676E-19   -6.608443E-18   -4.082083E-17    1.772747E-14    2.422464E-12    2.081750E-10
         1.291907E-08    5.728042E-07    1.748121E-05    3.506091E-04    4.251945E-03    2.313618E-02    4.251945E-03    3.506091E-04    1.748121E-05    5.728042E-07
         1.291907E-08    2.081750E-10    2.422466E-12    1.772715E-14   -4.088322E-17   -6.614335E-18   -2.684027E-19   -9.058792E-21   -2.612174E-22   -6.460333E-24
        -1.424652E-25
  22    -4.009138E-27   -2.083208E-25   -9.730118E-24   -3.922682E-22   -1.342073E-20   -3.889417E-19   -8.960328E-18   -4.241627E-19    2.646832E-14    2.934081E-12
         2.081750E-10    1.048443E-08    3.688871E-07    8.625405E-06    1.213812E-04    7.560469E-04    1.213812E-04    8.625405E-06    3.688871E-07    1.048443E-08
         2.081750E-10    2.934085E-12    2.646792E-14   -5.493473E-19   -8.974069E-18   -3.897873E-19   -1.345744E-20   -3.935072E-22   -9.764481E-24   -2.091366E-25
        -4.026545E-27
  23    -8.170021E-29   -4.942397E-27   -2.700209E-25   -1.280036E-23   -5.143866E-22   -1.728120E-20   -4.835719E-19   -1.033587E-17    2.228858E-17    2.646831E-14
         2.422462E-12    1.392066E-10    5.494442E-09    1.441094E-07    2.261670E-06    1.557638E-05    2.261670E-06    1.441094E-07    5.494442E-09    1.392066E-10
         2.422466E-12    2.646792E-14    2.212440E-17   -1.035726E-17   -4.850487E-19   -1.735057E-20   -5.168489E-22   -1.287040E-23   -2.716863E-25   -4.976637E-27
        -8.233594E-29
  24    -1.204077E-30   -8.647744E-29   -5.614475E-27   -3.168437E-25   -1.514925E-23   -6.010514E-22   -1.955817E-20   -5.194777E-19   -1.033497E-17   -4.135853E-19
         1.772744E-14    1.346011E-12    6.040331E-11    1.743798E-09    2.979228E-08    2.218966E-07    2.979228E-08    1.743798E-09    6.040330E-11    1.346012E-12
         1.772715E-14   -5.493473E-19   -1.035726E-17   -5.212963E-19   -1.965431E-20   -6.047511E-22   -1.525975E-23   -3.195231E-25   -5.669149E-27   -8.744567E-29
        -1.219578E-30
  25    -1.259917E-32   -1.106314E-30   -8.744713E-29   -5.983347E-27   -3.451397E-25   -1.641156E-23   -6.323211E-22   -1.955495E-20   -4.834595E-19   -8.958573E-18
        -4.081107E-17    7.563504E-15    4.823985E-13    1.589667E-11    2.939968E-10    2.338255E-09    2.939968E-10    1.589666E-11    4.823973E-13    7.563300E-15
        -4.088322E-17   -8.974069E-18   -4.850487E-19   -1.965431E-20   -6.366307E-22   -1.655102E-23   -3.486760E-25   -6.056339E-27   -8.871402E-29   -1.125378E-30
        -1.285833E-32
  26    -8.878558E-35   -1.005730E-32   -1.009239E-30   -8.630909E-29   -6.130704E-27   -3.544136E-25   -1.640780E-23   -6.008266E-22   -1.727405E-20   -3.888112E-19
        -6.607228E-18   -5.490583E-17    1.730919E-15    1.016398E-13    2.209683E-12    1.898780E-11    2.209683E-12    1.016393E-13    1.730794E-15   -5.493160E-17
        -6.614335E-18   -3.897873E-19   -1.735057E-20   -6.047511E-22   -1.655102E-23   -3.583430E-25   -6.215099E-27   -8.777533E-29   -1.030488E-30   -1.032274E-32
        -9.177847E-35
  27    -3.623905E-37   -6.054991E-35   -8.394189E-33   -9.468054E-31   -8.557015E-29   -6.128844E-27   -3.449652E-25   -1.514006E-23   -5.140795E-22   -1.341433E-20
        -2.679914E-19   -4.032366E-18   -3.883228E-17    2.827379E-17    9.852549E-15    1.108370E-13    9.852487E-15    2.824538E-17   -3.883936E-17   -4.034514E-18
        -2.684027E-19   -1.345744E-20   -5.168489E-22   -1.525975E-23   -3.486760E-25   -6.215099E-27   -8.712299E-29   -9.690549E-31   -8.655369E-33   -6.315919E-35
        -3.859224E-37
  28    -3.157154E-40   -1.936878E-37   -4.714271E-35   -7.804419E-33   -9.464007E-31   -8.624968E-29   -5.978386E-27   -3.165714E-25   -1.279038E-23   -3.920322E-22
        -9.041622E-21   -1.560804E-19   -2.015018E-18   -1.836193E-17   -8.840858E-17   -6.727547E-17   -8.841116E-17   -1.836325E-17   -2.015471E-18   -1.561961E-19
        -9.058792E-21   -3.935072E-22   -1.287040E-23   -3.195231E-25   -6.056339E-27   -8.777533E-29   -9.690549E-31   -8.064438E-33   -4.950397E-35   -2.114207E-37
        -4.360988E-40
  29     4.235533E-42    9.622747E-41   -1.454448E-37   -4.710691E-35   -8.385422E-33   -1.008048E-30   -8.734127E-29   -5.608079E-27   -2.697592E-25   -9.723115E-24
        -2.606497E-22   -5.144440E-21   -7.486108E-20   -8.129259E-19   -5.698524E-18   -2.179003E-17   -5.698644E-18   -8.129962E-19   -7.488304E-20   -5.149063E-21
        -2.612174E-22   -9.764481E-24   -2.716863E-25   -5.669149E-27   -8.871402E-29   -1.030488E-30   -8.655369E-33   -4.950397E-35   -1.612162E-37    1.643026E-41
         3.873268E-42
  30     1.666625E-44    3.533574E-42    9.728189E-41   -1.931852E-37   -6.042785E-35   -1.003890E-32   -1.104469E-30   -8.635162E-29   -4.936593E-27   -2.081454E-25
        -6.444611E-24   -1.447678E-22   -2.345263E-21   -2.776148E-20   -2.152439E-19   -1.036926E-18   -2.152491E-19   -2.776438E-20   -2.346088E-21   -1.449171E-22
        -6.460333E-24   -2.091366E-25   -4.976637E-27   -8.744567E-29   -1.125378E-30   -1.032274E-32   -6.315919E-35   -2.114207E-37    1.643026E-41    3.306757E-42
         1.616137E-44
  31      0.00000        1.667391E-44    4.245139E-42   -3.108119E-40   -3.610080E-37   -8.854291E-35   -1.257110E-32   -1.201889E-30   -8.158565E-29   -4.005223E-27
        -1.420783E-25   -3.595354E-24   -6.427405E-23   -8.254759E-22   -7.180817E-21   -4.139637E-20   -7.181004E-21   -8.255760E-22   -6.430036E-23   -3.599559E-24
        -1.424652E-25   -4.026545E-27   -8.233594E-29   -1.219578E-30   -1.285833E-32   -9.177847E-35   -3.859224E-37   -4.360988E-40    3.873268E-42    1.616137E-44
          0.00000    

 CONCENTRATION WILL BE SAVED ON UNIT 1030 AT END OF TIME STEP   48, STRESS PERIOD    2


  MASS BUDGET FOR ENTIRE MODEL AT END OF TIME STEP   48, STRESS PERIOD   2
  ---------------------------------------------------------------------------------------------------

     CUMULATIVE MASS      M       RATES FOR THIS TIME STEP      M/T          PACKAGE NAME    
     ------------------                 ------------------------                     ----------------

           IN:                                      IN:
           ---                                      ---
     STORAGE-AQUEOUS =  6397664196.4111       STORAGE-AQUEOUS =     2148848.2411     MST                              
                 WEL =  7884000000.0000                   WEL =           0.0000     SSM_WEL-1                        
                 CHD =           0.0000                   CHD =           0.0000     SSM_CHD-1                        

            TOTAL IN = 14281664196.4111              TOTAL IN =     2148848.2411

          OUT:                                     OUT:
          ----                                     ----
     STORAGE-AQUEOUS =  7888688815.5513       STORAGE-AQUEOUS =         114.0808     MST                              
                 WEL =  6392975380.8599                   WEL =     2148734.1603     SSM_WEL-1                        
                 CHD =       7.5562E-18                   CHD =           0.0000     SSM_CHD-1                        

           TOTAL OUT = 14281664196.4112             TOTAL OUT =     2148848.2411

            IN - OUT =      -8.5831E-05              IN - OUT =      -6.1933E-08

 PERCENT DISCREPANCY =          -0.00     PERCENT DISCREPANCY =          -0.00




         TIME SUMMARY AT END OF TIME STEP   48 IN STRESS PERIOD    2
                    SECONDS     MINUTES      HOURS       DAYS        YEARS
                    -----------------------------------------------------------
   TIME STEP LENGTH 2.16991E+06  36165.      602.75      25.115     6.87602E-02
 STRESS PERIOD TIME 1.04156E+08 1.73593E+06  28932.      1205.5      3.3005    
         TOTAL TIME 1.82996E+08 3.04993E+06  50832.      2118.0      5.7988    


end timestep


start timestep kper="2" kstp="49" mode="normal"

 UBDSV1 SAVING  STORAGE-AQUEOUS ON UNIT   1029 AT TIME STEP     49, STRESS PERIOD      2
 UBDSV1 SAVING     FLOW-JA-FACE ON UNIT   1029 AT TIME STEP     49, STRESS PERIOD      2
 UBDSV06 SAVING  SOURCE-SINK MIX IN MODEL GWT_P06-MF6      PACKAGE GWT_P06-MF6     CONNECTED TO MODEL GWT_P06-MF6      PACKAGE SSM              ON UNIT   1029 AT TIME STEP     49, STRESS PERIOD      2
1
  CONCENTRATION IN LAYER   1 AT END OF TIME STEP  49 IN STRESS PERIOD    2
  ---------------------------------------------------------------------------

                1               2               3               4               5               6               7               8               9              10
               11              12              13              14              15              16              17              18              19              20
               21              22              23              24              25              26              27              28              29              30
               31
 ................................................................................................................................................................................................................................................................................................................................................................................................................................................................................................................
   1      0.00000        1.661161E-44    3.796874E-42   -5.464455E-40   -4.214492E-37   -9.811531E-35   -1.359597E-32   -1.279264E-30   -8.578375E-29   -4.169760E-27
        -1.467238E-25   -3.689659E-24   -6.566696E-23   -8.403184E-22   -7.283385E-21   -4.172892E-20   -7.283216E-21   -8.402346E-22   -6.564626E-23   -3.686384E-24
        -1.464134E-25   -4.151928E-27   -8.512937E-29   -1.263226E-30   -1.332640E-32   -9.498493E-35   -3.966923E-37   -4.189691E-40    4.183611E-42    1.715734E-44
          0.00000    
   2     1.661161E-44    3.295969E-42   -3.783430E-41   -2.324967E-37   -6.752992E-35   -1.090905E-32   -1.180078E-30   -9.111469E-29   -5.155937E-27   -2.155245E-25
        -6.625097E-24   -1.479798E-22   -2.387590E-21   -2.816354E-20   -2.176682E-19   -1.042385E-18   -2.176636E-19   -2.816111E-20   -2.386939E-21   -1.478632E-22
        -6.612439E-24   -2.146919E-25   -5.120833E-27   -9.011747E-29   -1.160352E-30   -1.063310E-32   -6.480439E-35   -2.138792E-37    4.645247E-41    3.537650E-42
         1.716571E-44
   3     3.796874E-42   -3.783430E-41   -1.780946E-37   -5.293870E-35   -9.141450E-33   -1.079954E-30   -9.240722E-29   -5.873384E-27   -2.800606E-25   -1.001770E-23
        -2.668212E-22   -5.239914E-21   -7.596433E-20   -8.210768E-19   -5.717495E-18   -2.162245E-17   -5.717387E-18   -8.210177E-19   -7.594691E-20   -5.236291E-21
        -2.663622E-22   -9.982748E-24   -2.783596E-25   -5.817299E-27   -9.110211E-29   -1.057972E-30   -8.870114E-33   -5.047471E-35   -1.615514E-37    4.757660E-41
         4.193975E-42
   4    -5.464455E-40   -2.324967E-37   -5.293870E-35   -8.515009E-33   -1.015115E-30   -9.139275E-29   -6.273059E-27   -3.293651E-25   -1.320665E-23   -4.020871E-22
        -9.221820E-21   -1.584580E-19   -2.032639E-18   -1.819632E-17   -8.037003E-17    1.270381E-17   -8.036774E-17   -1.819520E-17   -2.032276E-18   -1.583670E-19
        -9.207863E-21   -4.008316E-22   -1.313538E-23   -3.266269E-25   -6.198163E-27   -8.988226E-29   -9.921028E-31   -8.244955E-33   -5.043715E-35   -2.133477E-37
        -4.137323E-40
   5    -4.214492E-37   -6.752992E-35   -9.141450E-33   -1.015115E-30   -9.069746E-29   -6.436208E-27   -3.593727E-25   -1.565882E-23   -5.282304E-22   -1.370456E-20
        -2.722677E-19   -4.051682E-18   -3.706856E-17    1.103906E-16    1.142746E-14    1.232711E-13    1.142752E-14    1.104151E-16   -3.706266E-17   -4.049973E-18
        -2.719309E-19   -1.366750E-20   -5.257342E-22   -1.554632E-23   -3.557578E-25   -6.349600E-27   -8.909775E-29   -9.916827E-31   -8.860967E-33   -6.467620E-35
        -3.952282E-37
   6    -9.811531E-35   -1.090905E-32   -1.079954E-30   -9.139275E-29   -6.436208E-27   -3.693138E-25   -1.698343E-23   -6.181234E-22   -1.767264E-20   -3.952321E-19
        -6.597777E-18   -4.731717E-17    2.143200E-15    1.139677E-13    2.420227E-12    2.053136E-11    2.420227E-12    1.139681E-13    2.143309E-15   -4.729574E-17
        -6.591884E-18   -3.943824E-19   -1.760261E-20   -6.143717E-22   -1.684142E-23   -3.652967E-25   -6.347687E-27   -8.982089E-29   -1.056736E-30   -1.061389E-32
        -9.472986E-35
   7    -1.359597E-32   -1.180078E-30   -9.240722E-29   -6.273059E-27   -3.593727E-25   -1.698343E-23   -6.507215E-22   -2.002047E-20   -4.915669E-19   -8.885399E-18
        -2.137470E-17    8.835272E-15    5.348642E-13    1.730138E-11    3.160802E-10    2.487316E-09    3.160802E-10    1.730138E-11    5.348653E-13    8.835470E-15
        -2.131254E-17   -8.871668E-18   -4.900829E-19   -1.992339E-20   -6.463508E-22   -1.683759E-23   -3.555792E-25   -6.193062E-27   -9.099278E-29   -1.158438E-30
        -1.329709E-32
   8    -1.279264E-30   -9.111469E-29   -5.873384E-27   -3.293651E-25   -1.565882E-23   -6.181234E-22   -2.002047E-20   -5.281800E-19   -1.020386E-17    3.244840E-17
         2.033208E-14    1.484271E-12    6.547498E-11    1.866106E-09    3.152092E-08    2.323142E-07    3.152092E-08    1.866106E-09    6.547498E-11    1.484271E-12
         2.033238E-14    3.257202E-17   -1.018249E-17   -5.263526E-19   -1.992014E-20   -6.141436E-22   -1.553696E-23   -3.263483E-25   -5.810726E-27   -8.998761E-29
        -1.260956E-30
   9    -8.578375E-29   -5.155937E-27   -2.800606E-25   -1.320665E-23   -5.282304E-22   -1.767264E-20   -4.915669E-19   -1.020386E-17    6.122262E-17    3.016079E-14
         2.663922E-12    1.504906E-10    5.858548E-09    1.517327E-07    2.354095E-06    1.604286E-05    2.354095E-06    1.517327E-07    5.858548E-09    1.504907E-10
         2.663920E-12    3.016119E-14    6.138464E-17   -1.018160E-17   -4.899701E-19   -1.759539E-20   -5.254228E-22   -1.312522E-23   -2.780920E-25   -5.114875E-27
        -8.501126E-29
  10    -4.169760E-27   -2.155245E-25   -1.001770E-23   -4.020871E-22   -1.370456E-20   -3.952321E-19   -8.885399E-18    3.244840E-17    3.016079E-14    3.223773E-12
         2.247437E-10    1.115297E-08    3.869599E-07    8.931176E-06    1.242344E-04    7.658036E-04    1.242344E-04    8.931176E-06    3.869599E-07    1.115297E-08
         2.247438E-10    3.223769E-12    3.016118E-14    3.258241E-17   -8.869916E-18   -3.942513E-19   -1.366104E-20   -4.005924E-22   -9.975622E-24   -2.145127E-25
        -4.147915E-27
  11    -1.467238E-25   -6.625097E-24   -2.668212E-22   -9.221820E-21   -2.722677E-19   -6.597777E-18   -2.137470E-17    2.033208E-14    2.663922E-12    2.247437E-10
         1.373165E-08    5.996427E-07    1.803408E-05    3.568822E-04    4.278338E-03    2.304844E-02    4.278338E-03    3.568822E-04    1.803408E-05    5.996427E-07
         1.373165E-08    2.247438E-10    2.663918E-12    2.033236E-14   -2.130288E-17   -6.590671E-18   -2.718544E-19   -9.204493E-21   -2.662462E-22   -6.609116E-24
        -1.463292E-25
  12    -3.689659E-24   -1.479798E-22   -5.239914E-21   -1.584580E-19   -4.051682E-18   -4.731717E-17    8.835272E-15    1.484271E-12    1.504906E-10    1.115297E-08
         5.996427E-07    2.245046E-05    5.596027E-04    8.937454E-03    8.657532E-02    0.385064        8.657532E-02    8.937454E-03    5.596027E-04    2.245046E-05
         5.996427E-07    1.115297E-08    1.504907E-10    1.484271E-12    8.835474E-15   -4.729141E-17   -4.049531E-18   -1.583417E-19   -5.235248E-21   -1.478286E-22
        -3.685387E-24
  13    -6.566696E-23   -2.387590E-21   -7.596433E-20   -2.032639E-18   -3.706856E-17    2.143200E-15    5.348642E-13    6.547498E-11    5.858548E-09    3.869599E-07
         1.803408E-05    5.596027E-04    1.090949E-02    0.128549        0.907873         3.04326        0.907873        0.128549        1.090949E-02    5.596027E-04
         1.803408E-05    3.869599E-07    5.858548E-09    6.547498E-11    5.348654E-13    2.143324E-15   -3.706144E-17   -2.032184E-18   -7.594223E-20   -2.386757E-21
        -6.564031E-23
  14    -8.403184E-22   -2.816354E-20   -8.210768E-19   -1.819632E-17    1.103906E-16    1.139677E-13    1.730138E-11    1.866106E-09    1.517327E-07    8.931176E-06
         3.568822E-04    8.937454E-03    0.128549         1.00669         4.53584         10.3846         4.53584         1.00669        0.128549        8.937454E-03
         3.568822E-04    8.931176E-06    1.517327E-07    1.866106E-09    1.730138E-11    1.139682E-13    1.104189E-16   -1.819500E-17   -8.210062E-19   -2.816062E-20
        -8.402170E-22
  15    -7.283385E-21   -2.176682E-19   -5.717495E-18   -8.037003E-17    1.142746E-14    2.420227E-12    3.160802E-10    3.152092E-08    2.354095E-06    1.242344E-04
         4.278338E-03    8.657532E-02    0.907873         4.53584         13.0079         18.2532         13.0079         4.53584        0.907873        8.657532E-02
         4.278338E-03    1.242344E-04    2.354095E-06    3.152092E-08    3.160802E-10    2.420227E-12    1.142752E-14   -8.036743E-17   -5.717374E-18   -2.176630E-19
        -7.283197E-21
  16    -4.172892E-20   -1.042385E-18   -2.162245E-17    1.270381E-17    1.232711E-13    2.053136E-11    2.487316E-09    2.323142E-07    1.604286E-05    7.658036E-04
         2.304844E-02    0.385064         3.04326         10.3846         18.2532         23.9532         18.2532         10.3846         3.04326        0.385064    
         2.304844E-02    7.658036E-04    1.604286E-05    2.323142E-07    2.487316E-09    2.053136E-11    1.232711E-13    1.270381E-17   -2.162245E-17   -1.042385E-18
        -4.172892E-20
  17    -7.283216E-21   -2.176636E-19   -5.717387E-18   -8.036774E-17    1.142752E-14    2.420227E-12    3.160802E-10    3.152092E-08    2.354095E-06    1.242344E-04
         4.278338E-03    8.657532E-02    0.907873         4.53584         13.0079         18.2532         13.0079         4.53584        0.907873        8.657532E-02
         4.278338E-03    1.242344E-04    2.354095E-06    3.152092E-08    3.160802E-10    2.420227E-12    1.142746E-14   -8.037003E-17   -5.717495E-18   -2.176682E-19
        -7.283385E-21
  18    -8.402346E-22   -2.816111E-20   -8.210177E-19   -1.819520E-17    1.104151E-16    1.139681E-13    1.730138E-11    1.866106E-09    1.517327E-07    8.931176E-06
         3.568822E-04    8.937454E-03    0.128549         1.00669         4.53584         10.3846         4.53584         1.00669        0.128549        8.937454E-03
         3.568822E-04    8.931176E-06    1.517327E-07    1.866106E-09    1.730138E-11    1.139677E-13    1.103906E-16   -1.819632E-17   -8.210768E-19   -2.816354E-20
        -8.403183E-22
  19    -6.564626E-23   -2.386939E-21   -7.594691E-20   -2.032276E-18   -3.706266E-17    2.143309E-15    5.348653E-13    6.547498E-11    5.858548E-09    3.869599E-07
         1.803408E-05    5.596027E-04    1.090949E-02    0.128549        0.907873         3.04326        0.907873        0.128549        1.090949E-02    5.596027E-04
         1.803408E-05    3.869599E-07    5.858548E-09    6.547498E-11    5.348642E-13    2.143200E-15   -3.706856E-17   -2.032639E-18   -7.596433E-20   -2.387590E-21
        -6.566696E-23
  20    -3.686384E-24   -1.478632E-22   -5.236291E-21   -1.583670E-19   -4.049973E-18   -4.729574E-17    8.835470E-15    1.484271E-12    1.504907E-10    1.115297E-08
         5.996427E-07    2.245046E-05    5.596027E-04    8.937454E-03    8.657532E-02    0.385064        8.657532E-02    8.937454E-03    5.596027E-04    2.245046E-05
         5.996427E-07    1.115297E-08    1.504906E-10    1.484271E-12    8.835273E-15   -4.731717E-17   -4.051682E-18   -1.584580E-19   -5.239914E-21   -1.479798E-22
        -3.689659E-24
  21    -1.464134E-25   -6.612439E-24   -2.663622E-22   -9.207863E-21   -2.719309E-19   -6.591884E-18   -2.131254E-17    2.033238E-14    2.663920E-12    2.247438E-10
         1.373165E-08    5.996427E-07    1.803408E-05    3.568822E-04    4.278338E-03    2.304844E-02    4.278338E-03    3.568822E-04    1.803408E-05    5.996427E-07
         1.373165E-08    2.247437E-10    2.663922E-12    2.033208E-14   -2.137470E-17   -6.597777E-18   -2.722677E-19   -9.221820E-21   -2.668212E-22   -6.625097E-24
        -1.467238E-25
  22    -4.151928E-27   -2.146919E-25   -9.982748E-24   -4.008316E-22   -1.366750E-20   -3.943824E-19   -8.871668E-18    3.257202E-17    3.016119E-14    3.223769E-12
         2.247438E-10    1.115297E-08    3.869599E-07    8.931176E-06    1.242344E-04    7.658036E-04    1.242344E-04    8.931176E-06    3.869599E-07    1.115297E-08
         2.247437E-10    3.223773E-12    3.016079E-14    3.244840E-17   -8.885399E-18   -3.952321E-19   -1.370456E-20   -4.020871E-22   -1.001770E-23   -2.155245E-25
        -4.169760E-27
  23    -8.512937E-29   -5.120833E-27   -2.783596E-25   -1.313538E-23   -5.257342E-22   -1.760261E-20   -4.900829E-19   -1.018249E-17    6.138464E-17    3.016118E-14
         2.663918E-12    1.504907E-10    5.858548E-09    1.517327E-07    2.354095E-06    1.604286E-05    2.354095E-06    1.517327E-07    5.858548E-09    1.504906E-10
         2.663922E-12    3.016079E-14    6.122262E-17   -1.020386E-17   -4.915669E-19   -1.767264E-20   -5.282304E-22   -1.320665E-23   -2.800606E-25   -5.155937E-27
        -8.578375E-29
  24    -1.263226E-30   -9.011747E-29   -5.817299E-27   -3.266269E-25   -1.554632E-23   -6.143717E-22   -1.992339E-20   -5.263526E-19   -1.018160E-17    3.258241E-17
         2.033236E-14    1.484271E-12    6.547498E-11    1.866106E-09    3.152092E-08    2.323142E-07    3.152092E-08    1.866106E-09    6.547498E-11    1.484271E-12
         2.033208E-14    3.244840E-17   -1.020386E-17   -5.281800E-19   -2.002047E-20   -6.181234E-22   -1.565882E-23   -3.293651E-25   -5.873384E-27   -9.111469E-29
        -1.279264E-30
  25    -1.332640E-32   -1.160352E-30   -9.110211E-29   -6.198163E-27   -3.557578E-25   -1.684142E-23   -6.463508E-22   -1.992014E-20   -4.899701E-19   -8.869916E-18
        -2.130288E-17    8.835474E-15    5.348654E-13    1.730138E-11    3.160802E-10    2.487316E-09    3.160802E-10    1.730138E-11    5.348642E-13    8.835273E-15
        -2.137470E-17   -8.885399E-18   -4.915669E-19   -2.002047E-20   -6.507215E-22   -1.698343E-23   -3.593727E-25   -6.273059E-27   -9.240722E-29   -1.180078E-30
        -1.359597E-32
  26    -9.498493E-35   -1.063310E-32   -1.057972E-30   -8.988226E-29   -6.349600E-27   -3.652967E-25   -1.683759E-23   -6.141436E-22   -1.759539E-20   -3.942513E-19
        -6.590671E-18   -4.729141E-17    2.143324E-15    1.139682E-13    2.420227E-12    2.053136E-11    2.420227E-12    1.139677E-13    2.143200E-15   -4.731717E-17
        -6.597777E-18   -3.952321E-19   -1.767264E-20   -6.181234E-22   -1.698343E-23   -3.693138E-25   -6.436208E-27   -9.139275E-29   -1.079954E-30   -1.090905E-32
        -9.811531E-35
  27    -3.966923E-37   -6.480439E-35   -8.870114E-33   -9.921028E-31   -8.909775E-29   -6.347687E-27   -3.555792E-25   -1.553696E-23   -5.254228E-22   -1.366104E-20
        -2.718544E-19   -4.049531E-18   -3.706144E-17    1.104189E-16    1.142752E-14    1.232711E-13    1.142746E-14    1.103906E-16   -3.706856E-17   -4.051682E-18
        -2.722677E-19   -1.370456E-20   -5.282304E-22   -1.565882E-23   -3.593727E-25   -6.436208E-27   -9.069746E-29   -1.015115E-30   -9.141450E-33   -6.752992E-35
        -4.214492E-37
  28    -4.189691E-40   -2.138792E-37   -5.047471E-35   -8.244955E-33   -9.916827E-31   -8.982089E-29   -6.193062E-27   -3.263483E-25   -1.312522E-23   -4.005924E-22
        -9.204493E-21   -1.583417E-19   -2.032184E-18   -1.819500E-17   -8.036743E-17    1.270381E-17   -8.037003E-17   -1.819632E-17   -2.032639E-18   -1.584580E-19
        -9.221820E-21   -4.020871E-22   -1.320665E-23   -3.293651E-25   -6.273059E-27   -9.139275E-29   -1.015115E-30   -8.515008E-33   -5.293870E-35   -2.324967E-37
        -5.464454E-40
  29     4.183611E-42    4.645247E-41   -1.615514E-37   -5.043715E-35   -8.860967E-33   -1.056736E-30   -9.099278E-29   -5.810726E-27   -2.780920E-25   -9.975622E-24
        -2.662462E-22   -5.235248E-21   -7.594223E-20   -8.210062E-19   -5.717374E-18   -2.162245E-17   -5.717495E-18   -8.210768E-19   -7.596433E-20   -5.239914E-21
        -2.668212E-22   -1.001770E-23   -2.800606E-25   -5.873384E-27   -9.240722E-29   -1.079954E-30   -9.141450E-33   -5.293870E-35   -1.780946E-37   -3.783428E-41
         3.796874E-42
  30     1.715734E-44    3.537650E-42    4.757660E-41   -2.133477E-37   -6.467620E-35   -1.061389E-32   -1.158438E-30   -8.998761E-29   -5.114875E-27   -2.145127E-25
        -6.609116E-24   -1.478286E-22   -2.386757E-21   -2.816062E-20   -2.176630E-19   -1.042385E-18   -2.176682E-19   -2.816354E-20   -2.387590E-21   -1.479798E-22
        -6.625097E-24   -2.155245E-25   -5.155937E-27   -9.111469E-29   -1.180078E-30   -1.090905E-32   -6.752992E-35   -2.324967E-37   -3.783428E-41    3.295969E-42
         1.661161E-44
  31      0.00000        1.716571E-44    4.193975E-42   -4.137323E-40   -3.952282E-37   -9.472986E-35   -1.329709E-32   -1.260956E-30   -8.501126E-29   -4.147915E-27
        -1.463292E-25   -3.685387E-24   -6.564031E-23   -8.402170E-22   -7.283197E-21   -4.172892E-20   -7.283385E-21   -8.403183E-22   -6.566696E-23   -3.689659E-24
        -1.467238E-25   -4.169760E-27   -8.578375E-29   -1.279264E-30   -1.359597E-32   -9.811531E-35   -4.214492E-37   -5.464454E-40    3.796874E-42    1.661161E-44
          0.00000    

 CONCENTRATION WILL BE SAVED ON UNIT 1030 AT END OF TIME STEP   49, STRESS PERIOD    2


  MASS BUDGET FOR ENTIRE MODEL AT END OF TIME STEP   49, STRESS PERIOD   2
  ---------------------------------------------------------------------------------------------------

     CUMULATIVE MASS      M       RATES FOR THIS TIME STEP      M/T          PACKAGE NAME    
     ------------------                 ------------------------                     ----------------

           IN:                                      IN:
           ---                                      ---
     STORAGE-AQUEOUS =  6449643039.8836       STORAGE-AQUEOUS =     2069659.8862     MST                              
                 WEL =  7884000000.0000                   WEL =           0.0000     SSM_WEL-1                        
                 CHD =           0.0000                   CHD =           0.0000     SSM_CHD-1                        

            TOTAL IN = 14333643039.8836              TOTAL IN =     2069659.8862

          OUT:                                     OUT:
          ----                                     ----
     STORAGE-AQUEOUS =  7888691354.6273       STORAGE-AQUEOUS =         101.0993     MST                              
                 WEL =  6444951685.2563                   WEL =     2069558.7869     SSM_WEL-1                        
                 CHD =       7.5562E-18                   CHD =           0.0000     SSM_CHD-1                        

           TOTAL OUT = 14333643039.8836             TOTAL OUT =     2069659.8862

            IN - OUT =      -8.7738E-05              IN - OUT =      -6.3330E-08

 PERCENT DISCREPANCY =          -0.00     PERCENT DISCREPANCY =          -0.00




         TIME SUMMARY AT END OF TIME STEP   49 IN STRESS PERIOD    2
                    SECONDS     MINUTES      HOURS       DAYS        YEARS
                    -----------------------------------------------------------
   TIME STEP LENGTH 2.16991E+06  36165.      602.75      25.115     6.87602E-02
 STRESS PERIOD TIME 1.06326E+08 1.77209E+06  29535.      1230.6      3.3693    
         TOTAL TIME 1.85166E+08 3.08609E+06  51435.      2143.1      5.8675    


end timestep


start timestep kper="2" kstp="50" mode="normal"

 UBDSV1 SAVING  STORAGE-AQUEOUS ON UNIT   1029 AT TIME STEP     50, STRESS PERIOD      2
 UBDSV1 SAVING     FLOW-JA-FACE ON UNIT   1029 AT TIME STEP     50, STRESS PERIOD      2
 UBDSV06 SAVING  SOURCE-SINK MIX IN MODEL GWT_P06-MF6      PACKAGE GWT_P06-MF6     CONNECTED TO MODEL GWT_P06-MF6      PACKAGE SSM              ON UNIT   1029 AT TIME STEP     50, STRESS PERIOD      2
1
  CONCENTRATION IN LAYER   1 AT END OF TIME STEP  50 IN STRESS PERIOD    2
  ---------------------------------------------------------------------------

                1               2               3               4               5               6               7               8               9              10
               11              12              13              14              15              16              17              18              19              20
               21              22              23              24              25              26              27              28              29              30
               31
 ................................................................................................................................................................................................................................................................................................................................................................................................................................................................................................................
   1      0.00000        1.705358E-44    3.699225E-42   -6.668413E-40   -4.593779E-37   -1.048074E-34   -1.436890E-32   -1.341397E-30   -8.935182E-29   -4.317169E-27
        -1.510858E-25   -3.781569E-24   -6.705617E-23   -8.552508E-22   -7.386669E-21   -4.206236E-20   -7.386498E-21   -8.551660E-22   -6.703520E-23   -3.778242E-24
        -1.507693E-25   -4.298905E-27   -8.867833E-29   -1.324808E-30   -1.408856E-32   -1.015341E-34   -4.333412E-37   -5.319133E-40    4.111837E-42    1.764287E-44
          0.00000    
   2     1.705358E-44    3.274575E-42   -9.734852E-41   -2.549972E-37   -7.214288E-35   -1.152314E-32   -1.237016E-30   -9.491245E-29   -5.340560E-27   -2.220700E-25
        -6.793183E-24   -1.510929E-22   -2.429630E-21   -2.856576E-20   -2.200804E-19   -1.047674E-18   -2.200757E-19   -2.856331E-20   -2.428972E-21   -1.509747E-22
        -6.780318E-24   -2.212202E-25   -5.304574E-27   -9.388551E-29   -1.216608E-30   -1.123633E-32   -6.929661E-35   -2.354567E-37   -8.352547E-42    3.531947E-42
         1.765200E-44
   3     3.699225E-42   -9.734852E-41   -1.961141E-37   -5.656210E-35   -9.650317E-33   -1.131427E-30   -9.622969E-29   -6.083711E-27   -2.886439E-25   -1.027610E-23
        -2.725182E-22   -5.331938E-21   -7.705109E-20   -8.289674E-19   -5.730476E-18   -2.140212E-17   -5.730368E-18   -8.289080E-19   -7.703354E-20   -5.328282E-21
        -2.720533E-22   -1.024056E-23   -2.869066E-25   -6.026186E-27   -9.488538E-29   -1.108690E-30   -9.368483E-33   -5.399146E-35   -1.787659E-37   -7.154750E-42
         4.123009E-42
   4    -6.668413E-40   -2.549972E-37   -5.656210E-35   -8.986595E-33   -1.063030E-30   -9.513609E-29   -6.496234E-27   -3.394540E-25   -1.354989E-23   -4.108124E-22
        -9.386893E-21   -1.607174E-19   -2.048269E-18   -1.796822E-17   -7.124002E-17    1.001909E-16   -7.123771E-17   -1.796709E-17   -2.047904E-18   -1.606258E-19
        -9.372809E-21   -4.095402E-22   -1.347736E-23   -3.366561E-25   -6.419393E-27   -9.358021E-29   -1.039233E-30   -8.706167E-33   -5.395205E-35   -2.348949E-37
        -5.263239E-40
   5    -4.593779E-37   -7.214288E-35   -9.650317E-33   -1.063030E-30   -9.439603E-29   -6.663886E-27   -3.703378E-25   -1.606624E-23   -5.398074E-22   -1.395458E-20
        -2.760877E-19   -4.062156E-18   -3.496630E-17    2.012278E-16    1.314080E-14    1.366445E-13    1.314085E-14    2.012523E-16   -3.496037E-17   -4.060444E-18
        -2.757493E-19   -1.391717E-20   -5.372771E-22   -1.595172E-23   -3.666432E-25   -6.575019E-27   -9.274825E-29   -1.038797E-30   -9.358941E-33   -6.916203E-35
        -4.317916E-37
   6    -1.048074E-34   -1.152314E-32   -1.131427E-30   -9.513609E-29   -6.663886E-27   -3.805599E-25   -1.742491E-23   -6.317268E-22   -1.799820E-20   -4.005424E-19
        -6.562717E-18   -3.857774E-17    2.596390E-15    1.273172E-13    2.645596E-12    2.216578E-11    2.645596E-12    1.273176E-13    2.596498E-15   -3.855629E-17
        -6.556824E-18   -3.996887E-19   -1.792750E-20   -6.279226E-22   -1.728033E-23   -3.764537E-25   -6.573052E-27   -9.351684E-29   -1.107407E-30   -1.121628E-32
        -1.012661E-34
   7    -1.436890E-32   -1.237016E-30   -9.622969E-29   -6.496234E-27   -3.703378E-25   -1.742491E-23   -6.650560E-22   -2.039034E-20   -4.978486E-19   -8.761783E-18
         6.657053E-19    1.022775E-14    5.914708E-13    1.879814E-11    3.393340E-10    2.642516E-09    3.393340E-10    1.879814E-11    5.914719E-13    1.022795E-14
         7.272261E-19   -8.748061E-18   -4.963575E-19   -2.029231E-20   -6.606237E-22   -1.727642E-23   -3.664603E-25   -6.414150E-27   -9.477250E-29   -1.214621E-30
        -1.405798E-32
   8    -1.341397E-30   -9.491245E-29   -6.083711E-27   -3.394540E-25   -1.606624E-23   -6.317268E-22   -2.039034E-20   -5.347807E-19   -1.000299E-17    6.935782E-17
         2.317725E-14    1.633032E-12    7.085801E-11    1.994225E-09    3.330920E-08    2.429623E-07    3.330920E-08    1.994225E-09    7.085801E-11    1.633032E-12
         2.317755E-14    6.947990E-17   -9.981646E-18   -5.329446E-19   -2.028904E-20   -6.276912E-22   -1.594218E-23   -3.363710E-25   -6.019433E-27   -9.375150E-29
        -1.322453E-30
   9    -8.935182E-29   -5.340560E-27   -2.886439E-25   -1.354989E-23   -5.398074E-22   -1.799820E-20   -4.978486E-19   -1.000299E-17    1.049011E-16    3.418977E-14
         2.923269E-12    1.624333E-10    6.238290E-09    1.595708E-07    2.447833E-06    1.650947E-05    2.447833E-06    1.595708E-07    6.238290E-09    1.624333E-10
         2.923267E-12    3.419016E-14    1.050610E-16   -9.980752E-18   -4.962441E-19   -1.792021E-20   -5.369613E-22   -1.346701E-23   -2.866331E-25   -5.298459E-27
        -8.855659E-29
  10    -4.317169E-27   -2.220700E-25   -1.027610E-23   -4.108124E-22   -1.395458E-20   -4.005424E-19   -8.761783E-18    6.935782E-17    3.418977E-14    3.534743E-12
         2.422528E-10    1.184815E-08    4.054487E-07    9.238886E-06    1.270561E-04    7.752217E-04    1.270561E-04    9.238886E-06    4.054487E-07    1.184815E-08
         2.422528E-10    3.534739E-12    3.419015E-14    6.949009E-17   -8.746313E-18   -3.995570E-19   -1.391065E-20   -4.092978E-22   -1.023331E-23   -2.210372E-25
        -4.294791E-27
  11    -1.510858E-25   -6.793183E-24   -2.725182E-22   -9.386893E-21   -2.760877E-19   -6.562717E-18    6.657053E-19    2.317725E-14    2.923269E-12    2.422528E-10
         1.457574E-08    6.270188E-07    1.858696E-05    3.630032E-04    4.302619E-03    2.295301E-02    4.302619E-03    3.630032E-04    1.858696E-05    6.270188E-07
         1.457574E-08    2.422528E-10    2.923266E-12    2.317752E-14    7.367216E-19   -6.555612E-18   -2.756725E-19   -9.369409E-21   -2.719357E-22   -6.776940E-24
        -1.506834E-25
  12    -3.781569E-24   -1.510929E-22   -5.331938E-21   -1.607174E-19   -4.062156E-18   -3.857774E-17    1.022775E-14    1.633032E-12    1.624333E-10    1.184815E-08
         6.270188E-07    2.310766E-05    5.673190E-04    8.939185E-03    8.565187E-02    0.377635        8.565187E-02    8.939185E-03    5.673190E-04    2.310766E-05
         6.270188E-07    1.184815E-08    1.624334E-10    1.633031E-12    1.022795E-14   -3.855198E-17   -4.060002E-18   -1.606005E-19   -5.327230E-21   -1.509397E-22
        -3.777230E-24
  13    -6.705617E-23   -2.429630E-21   -7.705109E-20   -2.048269E-18   -3.496630E-17    2.596390E-15    5.914708E-13    7.085801E-11    6.238290E-09    4.054487E-07
         1.858696E-05    5.673190E-04    1.088746E-02    0.126576        0.885422         2.94938        0.885422        0.126576        1.088746E-02    5.673190E-04
         1.858696E-05    4.054487E-07    6.238290E-09    7.085801E-11    5.914720E-13    2.596513E-15   -3.495915E-17   -2.047812E-18   -7.702884E-20   -2.428789E-21
        -6.702917E-23
  14    -8.552508E-22   -2.856576E-20   -8.289674E-19   -1.796822E-17    2.012278E-16    1.273172E-13    1.879814E-11    1.994225E-09    1.595708E-07    9.238886E-06
         3.630032E-04    8.939185E-03    0.126576        0.979203         4.38373         10.0124         4.38373        0.979203        0.126576        8.939185E-03
         3.630032E-04    9.238886E-06    1.595708E-07    1.994225E-09    1.879814E-11    1.273177E-13    2.012561E-16   -1.796689E-17   -8.288964E-19   -2.856282E-20
        -8.551484E-22
  15    -7.386669E-21   -2.200804E-19   -5.730476E-18   -7.124002E-17    1.314080E-14    2.645596E-12    3.393340E-10    3.330920E-08    2.447833E-06    1.270561E-04
         4.302619E-03    8.565187E-02    0.885422         4.38373         12.5449         17.5853         12.5449         4.38373        0.885422        8.565187E-02
         4.302619E-03    1.270561E-04    2.447833E-06    3.330920E-08    3.393339E-10    2.645596E-12    1.314086E-14   -7.123741E-17   -5.730354E-18   -2.200752E-19
        -7.386478E-21
  16    -4.206236E-20   -1.047674E-18   -2.140212E-17    1.001909E-16    1.366445E-13    2.216578E-11    2.642516E-09    2.429623E-07    1.650947E-05    7.752217E-04
         2.295301E-02    0.377635         2.94938         10.0124         17.5853         23.0713         17.5853         10.0124         2.94938        0.377635    
         2.295301E-02    7.752217E-04    1.650947E-05    2.429623E-07    2.642516E-09    2.216578E-11    1.366445E-13    1.001909E-16   -2.140212E-17   -1.047674E-18
        -4.206236E-20
  17    -7.386498E-21   -2.200757E-19   -5.730368E-18   -7.123771E-17    1.314085E-14    2.645596E-12    3.393340E-10    3.330920E-08    2.447833E-06    1.270561E-04
         4.302619E-03    8.565187E-02    0.885422         4.38373         12.5449         17.5853         12.5449         4.38373        0.885422        8.565187E-02
         4.302619E-03    1.270561E-04    2.447833E-06    3.330920E-08    3.393340E-10    2.645596E-12    1.314080E-14   -7.124002E-17   -5.730476E-18   -2.200804E-19
        -7.386669E-21
  18    -8.551660E-22   -2.856331E-20   -8.289080E-19   -1.796709E-17    2.012523E-16    1.273176E-13    1.879814E-11    1.994225E-09    1.595708E-07    9.238886E-06
         3.630032E-04    8.939185E-03    0.126576        0.979203         4.38373         10.0124         4.38373        0.979203        0.126576        8.939185E-03
         3.630032E-04    9.238886E-06    1.595708E-07    1.994225E-09    1.879814E-11    1.273172E-13    2.012278E-16   -1.796822E-17   -8.289674E-19   -2.856576E-20
        -8.552508E-22
  19    -6.703520E-23   -2.428972E-21   -7.703354E-20   -2.047904E-18   -3.496037E-17    2.596498E-15    5.914719E-13    7.085801E-11    6.238290E-09    4.054487E-07
         1.858696E-05    5.673190E-04    1.088746E-02    0.126576        0.885422         2.94938        0.885422        0.126576        1.088746E-02    5.673190E-04
         1.858696E-05    4.054487E-07    6.238290E-09    7.085801E-11    5.914708E-13    2.596390E-15   -3.496630E-17   -2.048269E-18   -7.705109E-20   -2.429630E-21
        -6.705617E-23
  20    -3.778242E-24   -1.509747E-22   -5.328282E-21   -1.606258E-19   -4.060444E-18   -3.855629E-17    1.022795E-14    1.633032E-12    1.624333E-10    1.184815E-08
         6.270188E-07    2.310766E-05    5.673190E-04    8.939185E-03    8.565187E-02    0.377635        8.565187E-02    8.939185E-03    5.673190E-04    2.310766E-05
         6.270188E-07    1.184815E-08    1.624333E-10    1.633032E-12    1.022775E-14   -3.857774E-17   -4.062156E-18   -1.607174E-19   -5.331938E-21   -1.510929E-22
        -3.781569E-24
  21    -1.507693E-25   -6.780318E-24   -2.720533E-22   -9.372809E-21   -2.757493E-19   -6.556824E-18    7.272261E-19    2.317755E-14    2.923267E-12    2.422528E-10
         1.457574E-08    6.270188E-07    1.858696E-05    3.630032E-04    4.302619E-03    2.295301E-02    4.302619E-03    3.630032E-04    1.858696E-05    6.270188E-07
         1.457574E-08    2.422528E-10    2.923269E-12    2.317725E-14    6.657060E-19   -6.562717E-18   -2.760877E-19   -9.386893E-21   -2.725182E-22   -6.793183E-24
        -1.510858E-25
  22    -4.298905E-27   -2.212202E-25   -1.024056E-23   -4.095402E-22   -1.391717E-20   -3.996887E-19   -8.748061E-18    6.947990E-17    3.419016E-14    3.534739E-12
         2.422528E-10    1.184815E-08    4.054487E-07    9.238886E-06    1.270561E-04    7.752217E-04    1.270561E-04    9.238886E-06    4.054487E-07    1.184815E-08
         2.422528E-10    3.534743E-12    3.418977E-14    6.935782E-17   -8.761783E-18   -4.005424E-19   -1.395458E-20   -4.108124E-22   -1.027610E-23   -2.220700E-25
        -4.317169E-27
  23    -8.867833E-29   -5.304574E-27   -2.869066E-25   -1.347736E-23   -5.372771E-22   -1.792750E-20   -4.963575E-19   -9.981646E-18    1.050610E-16    3.419015E-14
         2.923266E-12    1.624334E-10    6.238290E-09    1.595708E-07    2.447833E-06    1.650947E-05    2.447833E-06    1.595708E-07    6.238290E-09    1.624333E-10
         2.923269E-12    3.418977E-14    1.049011E-16   -1.000299E-17   -4.978486E-19   -1.799820E-20   -5.398074E-22   -1.354989E-23   -2.886439E-25   -5.340560E-27
        -8.935182E-29
  24    -1.324808E-30   -9.388551E-29   -6.026186E-27   -3.366561E-25   -1.595172E-23   -6.279226E-22   -2.029231E-20   -5.329446E-19   -9.980752E-18    6.949009E-17
         2.317752E-14    1.633031E-12    7.085801E-11    1.994225E-09    3.330920E-08    2.429623E-07    3.330920E-08    1.994225E-09    7.085801E-11    1.633032E-12
         2.317725E-14    6.935782E-17   -1.000299E-17   -5.347807E-19   -2.039034E-20   -6.317268E-22   -1.606624E-23   -3.394540E-25   -6.083711E-27   -9.491245E-29
        -1.341397E-30
  25    -1.408856E-32   -1.216608E-30   -9.488538E-29   -6.419393E-27   -3.666432E-25   -1.728033E-23   -6.606237E-22   -2.028904E-20   -4.962441E-19   -8.746313E-18
         7.367216E-19    1.022795E-14    5.914720E-13    1.879814E-11    3.393339E-10    2.642516E-09    3.393340E-10    1.879814E-11    5.914708E-13    1.022775E-14
         6.657060E-19   -8.761783E-18   -4.978486E-19   -2.039034E-20   -6.650560E-22   -1.742491E-23   -3.703378E-25   -6.496234E-27   -9.622969E-29   -1.237016E-30
        -1.436890E-32
  26    -1.015341E-34   -1.123633E-32   -1.108690E-30   -9.358021E-29   -6.575019E-27   -3.764537E-25   -1.727642E-23   -6.276912E-22   -1.792021E-20   -3.995570E-19
        -6.555612E-18   -3.855198E-17    2.596513E-15    1.273177E-13    2.645596E-12    2.216578E-11    2.645596E-12    1.273172E-13    2.596390E-15   -3.857774E-17
        -6.562717E-18   -4.005424E-19   -1.799820E-20   -6.317268E-22   -1.742491E-23   -3.805599E-25   -6.663886E-27   -9.513609E-29   -1.131427E-30   -1.152314E-32
        -1.048074E-34
  27    -4.333412E-37   -6.929661E-35   -9.368483E-33   -1.039233E-30   -9.274825E-29   -6.573052E-27   -3.664603E-25   -1.594218E-23   -5.369613E-22   -1.391065E-20
        -2.756725E-19   -4.060002E-18   -3.495915E-17    2.012561E-16    1.314086E-14    1.366445E-13    1.314080E-14    2.012278E-16   -3.496630E-17   -4.062156E-18
        -2.760877E-19   -1.395458E-20   -5.398074E-22   -1.606624E-23   -3.703378E-25   -6.663886E-27   -9.439603E-29   -1.063030E-30   -9.650317E-33   -7.214288E-35
        -4.593779E-37
  28    -5.319133E-40   -2.354567E-37   -5.399146E-35   -8.706167E-33   -1.038797E-30   -9.351684E-29   -6.414150E-27   -3.363710E-25   -1.346701E-23   -4.092978E-22
        -9.369409E-21   -1.606005E-19   -2.047812E-18   -1.796689E-17   -7.123741E-17    1.001909E-16   -7.124002E-17   -1.796822E-17   -2.048269E-18   -1.607174E-19
        -9.386893E-21   -4.108124E-22   -1.354989E-23   -3.394540E-25   -6.496234E-27   -9.513609E-29   -1.063030E-30   -8.986595E-33   -5.656210E-35   -2.549972E-37
        -6.668413E-40
  29     4.111837E-42   -8.352546E-42   -1.787659E-37   -5.395205E-35   -9.358941E-33   -1.107407E-30   -9.477250E-29   -6.019433E-27   -2.866331E-25   -1.023331E-23
        -2.719357E-22   -5.327230E-21   -7.702884E-20   -8.288964E-19   -5.730354E-18   -2.140212E-17   -5.730476E-18   -8.289674E-19   -7.705109E-20   -5.331938E-21
        -2.725182E-22   -1.027610E-23   -2.886439E-25   -6.083711E-27   -9.622969E-29   -1.131427E-30   -9.650317E-33   -5.656210E-35   -1.961141E-37   -9.734850E-41
         3.699225E-42
  30     1.764287E-44    3.531947E-42   -7.154750E-42   -2.348949E-37   -6.916203E-35   -1.121628E-32   -1.214621E-30   -9.375150E-29   -5.298459E-27   -2.210372E-25
        -6.776940E-24   -1.509397E-22   -2.428789E-21   -2.856282E-20   -2.200752E-19   -1.047674E-18   -2.200804E-19   -2.856576E-20   -2.429630E-21   -1.510929E-22
        -6.793183E-24   -2.220700E-25   -5.340560E-27   -9.491245E-29   -1.237016E-30   -1.152314E-32   -7.214288E-35   -2.549972E-37   -9.734850E-41    3.274575E-42
         1.705358E-44
  31      0.00000        1.765200E-44    4.123009E-42   -5.263239E-40   -4.317916E-37   -1.012661E-34   -1.405798E-32   -1.322453E-30   -8.855659E-29   -4.294791E-27
        -1.506834E-25   -3.777230E-24   -6.702917E-23   -8.551484E-22   -7.386478E-21   -4.206236E-20   -7.386669E-21   -8.552508E-22   -6.705617E-23   -3.781569E-24
        -1.510858E-25   -4.317169E-27   -8.935182E-29   -1.341397E-30   -1.436890E-32   -1.048074E-34   -4.593779E-37   -6.668413E-40    3.699225E-42    1.705358E-44
          0.00000    

 CONCENTRATION WILL BE SAVED ON UNIT 1030 AT END OF TIME STEP   50, STRESS PERIOD    2


  MASS BUDGET FOR ENTIRE MODEL AT END OF TIME STEP   50, STRESS PERIOD   2
  ---------------------------------------------------------------------------------------------------

     CUMULATIVE MASS      M       RATES FOR THIS TIME STEP      M/T          PACKAGE NAME    
     ------------------                 ------------------------                     ----------------

           IN:                                      IN:
           ---                                      ---
     STORAGE-AQUEOUS =  6499707763.7189       STORAGE-AQUEOUS =     1993444.7116     MST                              
                 WEL =  7884000000.0000                   WEL =           0.0000     SSM_WEL-1                        
                 CHD =           0.0000                   CHD =           0.0000     SSM_CHD-1                        

            TOTAL IN = 14383707763.7189              TOTAL IN =     1993444.7116

          OUT:                                     OUT:
          ----                                     ----
     STORAGE-AQUEOUS =  7888693575.4120       STORAGE-AQUEOUS =          88.4258     MST                              
                 WEL =  6495014188.3070                   WEL =     1993356.2859     SSM_WEL-1                        
                 CHD =       7.5562E-18                   CHD =           0.0000     SSM_CHD-1                        

           TOTAL OUT = 14383707763.7190             TOTAL OUT =     1993444.7116

            IN - OUT =      -8.7738E-05              IN - OUT =      -5.7044E-08

 PERCENT DISCREPANCY =          -0.00     PERCENT DISCREPANCY =          -0.00




         TIME SUMMARY AT END OF TIME STEP   50 IN STRESS PERIOD    2
                    SECONDS     MINUTES      HOURS       DAYS        YEARS
                    -----------------------------------------------------------
   TIME STEP LENGTH 2.16991E+06  36165.      602.75      25.115     6.87602E-02
 STRESS PERIOD TIME 1.08495E+08 1.80826E+06  30138.      1255.7      3.4380    
         TOTAL TIME 1.87335E+08 3.12226E+06  52038.      2168.2      5.9363    


end timestep


start timestep kper="2" kstp="51" mode="normal"

 UBDSV1 SAVING  STORAGE-AQUEOUS ON UNIT   1029 AT TIME STEP     51, STRESS PERIOD      2
 UBDSV1 SAVING     FLOW-JA-FACE ON UNIT   1029 AT TIME STEP     51, STRESS PERIOD      2
 UBDSV06 SAVING  SOURCE-SINK MIX IN MODEL GWT_P06-MF6      PACKAGE GWT_P06-MF6     CONNECTED TO MODEL GWT_P06-MF6      PACKAGE SSM              ON UNIT   1029 AT TIME STEP     51, STRESS PERIOD      2
1
  CONCENTRATION IN LAYER   1 AT END OF TIME STEP  51 IN STRESS PERIOD    2
  ---------------------------------------------------------------------------

                1               2               3               4               5               6               7               8               9              10
               11              12              13              14              15              16              17              18              19              20
               21              22              23              24              25              26              27              28              29              30
               31
 ................................................................................................................................................................................................................................................................................................................................................................................................................................................................................................................
   1      0.00000        1.748500E-44    3.578414E-42   -7.979526E-40   -4.998404E-37   -1.118713E-34   -1.517854E-32   -1.406062E-30   -9.304358E-29   -4.468871E-27
        -1.555533E-25   -3.875318E-24   -6.846824E-23   -8.703743E-22   -7.490842E-21   -4.239657E-20   -7.490670E-21   -8.702886E-22   -6.844699E-23   -3.871937E-24
        -1.552305E-25   -4.450166E-27   -9.235053E-29   -1.388904E-30   -1.488708E-32   -1.084496E-34   -4.724671E-37   -6.551984E-40    4.018374E-42    1.812070E-44
          0.00000    
   2     1.748500E-44    3.241589E-42   -1.624598E-40   -2.789996E-37   -7.700931E-35   -1.216614E-32   -1.296267E-30   -9.884265E-29   -5.530632E-27   -2.287760E-25
        -6.964642E-24   -1.542568E-22   -2.472208E-21   -2.897089E-20   -2.224816E-19   -1.052761E-18   -2.224769E-19   -2.896842E-20   -2.471543E-21   -1.541372E-22
        -6.951567E-24   -2.279088E-25   -5.493747E-27   -9.778525E-29   -1.275157E-30   -1.186809E-32   -7.403766E-35   -2.584960E-37   -6.852557E-41    3.515522E-42
         1.813066E-44
   3     3.578414E-42   -1.624598E-40   -2.153363E-37   -6.038283E-35   -1.018287E-32   -1.184975E-30   -1.001852E-28   -6.300276E-27   -2.974403E-25   -1.053977E-23
        -2.783092E-22   -5.425126E-21   -7.814210E-20   -8.366252E-19   -5.736876E-18   -2.112445E-17   -5.736767E-18   -8.365654E-19   -7.812445E-20   -5.421436E-21
        -2.778383E-22   -1.050362E-23   -2.956662E-25   -6.241281E-27   -9.880067E-29   -1.161461E-30   -9.890189E-33   -5.770148E-35   -1.971487E-37   -6.724996E-41
         4.030408E-42
   4    -7.979526E-40   -2.789996E-37   -6.038283E-35   -9.480029E-33   -1.112864E-30   -9.900897E-29   -6.726020E-27   -3.497945E-25   -1.390021E-23   -4.196843E-22
        -9.553958E-21   -1.629688E-19   -2.062113E-18   -1.767285E-17   -6.093031E-17    1.957212E-16   -6.092798E-17   -1.767171E-17   -2.061747E-18   -1.628768E-19
        -9.539747E-21   -4.183954E-22   -1.382641E-23   -3.469359E-25   -6.647193E-27   -9.740657E-29   -1.088258E-30   -9.188878E-33   -5.766015E-35   -2.579025E-37
        -6.492362E-40
   5    -4.998404E-37   -7.700931E-35   -1.018287E-32   -1.112864E-30   -9.822227E-29   -6.898292E-27   -3.815768E-25   -1.648215E-23   -5.515814E-22   -1.420736E-20
        -2.798472E-19   -4.065030E-18   -3.250157E-17    3.014388E-16    1.500164E-14    1.510081E-13    1.500169E-14    3.014632E-16   -3.249560E-17   -4.063315E-18
        -2.795071E-19   -1.416961E-20   -5.490167E-22   -1.636558E-23   -3.778010E-25   -6.807118E-27   -9.652520E-29   -1.087806E-30   -9.880238E-33   -7.389640E-35
        -4.708275E-37
   6    -1.118713E-34   -1.216614E-32   -1.184975E-30   -9.900897E-29   -6.898292E-27   -3.920868E-25   -1.787562E-23   -6.455625E-22   -1.832697E-20   -4.056862E-19
        -6.506983E-18   -2.861172E-17    3.093405E-15    1.417502E-13    2.886501E-12    2.389427E-11    2.886501E-12    1.417506E-13    3.093513E-15   -2.859025E-17
        -6.501090E-18   -4.048285E-19   -1.825560E-20   -6.417056E-22   -1.772842E-23   -3.878899E-25   -6.805097E-27   -9.734113E-29   -1.160130E-30   -1.184718E-32
        -1.081681E-34
   7    -1.517854E-32   -1.296267E-30   -1.001852E-28   -6.726020E-27   -3.815768E-25   -1.787562E-23   -6.796356E-22   -2.076356E-20   -5.038445E-19   -8.599370E-18
         2.533483E-17    1.174940E-14    6.524521E-13    2.039081E-11    3.637907E-10    2.803935E-09    3.637907E-10    2.039081E-11    6.524532E-13    1.174959E-14
         2.539571E-17   -8.585659E-18   -5.023464E-19   -2.066460E-20   -6.751413E-22   -1.772444E-23   -3.776139E-25   -6.641805E-27   -9.868414E-29   -1.273096E-30
        -1.485517E-32
   8    -1.406062E-30   -9.884265E-29   -6.300276E-27   -3.497945E-25   -1.648215E-23   -6.455625E-22   -2.076356E-20   -5.410424E-19   -9.749508E-18    1.105130E-16
         2.627940E-14    1.792853E-12    7.656386E-11    2.128272E-09    3.515728E-08    2.538366E-07    3.515728E-08    2.128272E-09    7.656387E-11    1.792854E-12
         2.627970E-14    1.106335E-16   -9.728185E-18   -5.391976E-19   -2.066129E-20   -6.414709E-22   -1.635586E-23   -3.466443E-25   -6.234345E-27   -9.764700E-29
        -1.386463E-30
   9    -9.304358E-29   -5.530632E-27   -2.974403E-25   -1.390021E-23   -5.515814E-22   -1.832697E-20   -5.038445E-19   -9.749508E-18    1.535487E-16    3.857775E-14
         3.201420E-12    1.750562E-10    6.633877E-09    1.676216E-07    2.542822E-06    1.697585E-05    2.542822E-06    1.676216E-07    6.633877E-09    1.750562E-10
         3.201418E-12    3.857814E-14    1.537066E-16   -9.727292E-18   -5.022325E-19   -1.824824E-20   -5.486964E-22   -1.381588E-23   -2.953866E-25   -5.487471E-27
        -9.222506E-29
  10    -4.468871E-27   -2.287760E-25   -1.053977E-23   -4.196843E-22   -1.420736E-20   -4.056862E-19   -8.599370E-18    1.105130E-16    3.857775E-14    3.868063E-12
         2.607310E-10    1.257020E-08    4.243443E-07    9.548284E-06    1.298445E-04    7.843012E-04    1.298445E-04    9.548284E-06    4.243443E-07    1.257020E-08
         2.607310E-10    3.868059E-12    3.857812E-14    1.106435E-16   -8.583915E-18   -4.046962E-19   -1.416303E-20   -4.181497E-22   -1.049625E-23   -2.277220E-25
        -4.445949E-27
  11    -1.555533E-25   -6.964642E-24   -2.783092E-22   -9.553958E-21   -2.798472E-19   -6.506983E-18    2.533483E-17    2.627940E-14    3.201420E-12    2.607310E-10
         1.545153E-08    6.549154E-07    1.913935E-05    3.689692E-04    4.324826E-03    2.285024E-02    4.324826E-03    3.689692E-04    1.913935E-05    6.549154E-07
         1.545153E-08    2.607310E-10    3.201417E-12    2.627967E-14    2.540505E-17   -6.499880E-18   -2.794299E-19   -9.536318E-21   -2.777193E-22   -6.948134E-24
        -1.551429E-25
  12    -3.875318E-24   -1.542568E-22   -5.425126E-21   -1.629688E-19   -4.065030E-18   -2.861172E-17    1.174940E-14    1.792853E-12    1.750562E-10    1.257020E-08
         6.549154E-07    2.376261E-05    5.747489E-04    8.936786E-03    8.471585E-02    0.370313        8.471585E-02    8.936786E-03    5.747489E-04    2.376261E-05
         6.549154E-07    1.257020E-08    1.750562E-10    1.792853E-12    1.174959E-14   -2.858597E-17   -4.062874E-18   -1.628513E-19   -5.420375E-21   -1.541018E-22
        -3.870910E-24
  13    -6.846824E-23   -2.472208E-21   -7.814210E-20   -2.062113E-18   -3.250157E-17    3.093405E-15    6.524521E-13    7.656386E-11    6.633877E-09    4.243443E-07
         1.913935E-05    5.747489E-04    1.086063E-02    0.124606        0.863497         2.85861        0.863497        0.124606        1.086063E-02    5.747489E-04
         1.913935E-05    4.243443E-07    6.633877E-09    7.656387E-11    6.524532E-13    3.093527E-15   -3.249438E-17   -2.061655E-18   -7.811972E-20   -2.471358E-21
        -6.844089E-23
  14    -8.703743E-22   -2.897089E-20   -8.366252E-19   -1.767285E-17    3.014388E-16    1.417502E-13    2.039081E-11    2.128272E-09    1.676216E-07    9.548284E-06
         3.689692E-04    8.936786E-03    0.124606        0.952467         4.23715         9.65449         4.23715        0.952467        0.124606        8.936786E-03
         3.689692E-04    9.548284E-06    1.676216E-07    2.128272E-09    2.039081E-11    1.417507E-13    3.014670E-16   -1.767150E-17   -8.365538E-19   -2.896792E-20
        -8.702707E-22
  15    -7.490842E-21   -2.224816E-19   -5.736876E-18   -6.093031E-17    1.500164E-14    2.886501E-12    3.637907E-10    3.515728E-08    2.542822E-06    1.298445E-04
         4.324826E-03    8.471585E-02    0.863497         4.23715         12.0991         16.9429         12.0991         4.23715        0.863497        8.471585E-02
         4.324826E-03    1.298445E-04    2.542822E-06    3.515728E-08    3.637907E-10    2.886501E-12    1.500170E-14   -6.092767E-17   -5.736754E-18   -2.224764E-19
        -7.490650E-21
  16    -4.239657E-20   -1.052761E-18   -2.112445E-17    1.957212E-16    1.510081E-13    2.389427E-11    2.803935E-09    2.538366E-07    1.697585E-05    7.843012E-04
         2.285024E-02    0.370313         2.85861         9.65449         16.9429         22.2225         16.9429         9.65449         2.85861        0.370313    
         2.285024E-02    7.843012E-04    1.697585E-05    2.538366E-07    2.803935E-09    2.389427E-11    1.510081E-13    1.957212E-16   -2.112445E-17   -1.052761E-18
        -4.239657E-20
  17    -7.490670E-21   -2.224769E-19   -5.736767E-18   -6.092798E-17    1.500169E-14    2.886501E-12    3.637907E-10    3.515728E-08    2.542822E-06    1.298445E-04
         4.324826E-03    8.471585E-02    0.863497         4.23715         12.0991         16.9429         12.0991         4.23715        0.863497        8.471585E-02
         4.324826E-03    1.298445E-04    2.542822E-06    3.515728E-08    3.637907E-10    2.886501E-12    1.500164E-14   -6.093031E-17   -5.736876E-18   -2.224816E-19
        -7.490842E-21
  18    -8.702886E-22   -2.896842E-20   -8.365654E-19   -1.767171E-17    3.014632E-16    1.417506E-13    2.039081E-11    2.128272E-09    1.676216E-07    9.548284E-06
         3.689692E-04    8.936786E-03    0.124606        0.952467         4.23715         9.65449         4.23715        0.952467        0.124606        8.936786E-03
         3.689692E-04    9.548284E-06    1.676216E-07    2.128272E-09    2.039081E-11    1.417502E-13    3.014388E-16   -1.767285E-17   -8.366251E-19   -2.897088E-20
        -8.703742E-22
  19    -6.844699E-23   -2.471543E-21   -7.812445E-20   -2.061747E-18   -3.249560E-17    3.093513E-15    6.524532E-13    7.656387E-11    6.633877E-09    4.243443E-07
         1.913935E-05    5.747489E-04    1.086063E-02    0.124606        0.863497         2.85861        0.863497        0.124606        1.086063E-02    5.747489E-04
         1.913935E-05    4.243443E-07    6.633877E-09    7.656386E-11    6.524521E-13    3.093405E-15   -3.250157E-17   -2.062113E-18   -7.814210E-20   -2.472208E-21
        -6.846824E-23
  20    -3.871937E-24   -1.541372E-22   -5.421436E-21   -1.628768E-19   -4.063315E-18   -2.859025E-17    1.174959E-14    1.792854E-12    1.750562E-10    1.257020E-08
         6.549154E-07    2.376261E-05    5.747489E-04    8.936786E-03    8.471585E-02    0.370313        8.471585E-02    8.936786E-03    5.747489E-04    2.376261E-05
         6.549154E-07    1.257020E-08    1.750562E-10    1.792853E-12    1.174940E-14   -2.861172E-17   -4.065030E-18   -1.629688E-19   -5.425126E-21   -1.542568E-22
        -3.875318E-24
  21    -1.552305E-25   -6.951567E-24   -2.778383E-22   -9.539747E-21   -2.795071E-19   -6.501090E-18    2.539571E-17    2.627970E-14    3.201418E-12    2.607310E-10
         1.545153E-08    6.549154E-07    1.913935E-05    3.689692E-04    4.324826E-03    2.285024E-02    4.324826E-03    3.689692E-04    1.913935E-05    6.549154E-07
         1.545153E-08    2.607310E-10    3.201420E-12    2.627940E-14    2.533483E-17   -6.506983E-18   -2.798472E-19   -9.553958E-21   -2.783092E-22   -6.964642E-24
        -1.555533E-25
  22    -4.450166E-27   -2.279088E-25   -1.050362E-23   -4.183954E-22   -1.416961E-20   -4.048285E-19   -8.585659E-18    1.106335E-16    3.857814E-14    3.868059E-12
         2.607310E-10    1.257020E-08    4.243443E-07    9.548284E-06    1.298445E-04    7.843012E-04    1.298445E-04    9.548284E-06    4.243443E-07    1.257020E-08
         2.607310E-10    3.868063E-12    3.857775E-14    1.105130E-16   -8.599370E-18   -4.056862E-19   -1.420736E-20   -4.196843E-22   -1.053977E-23   -2.287760E-25
        -4.468871E-27
  23    -9.235053E-29   -5.493747E-27   -2.956662E-25   -1.382641E-23   -5.490167E-22   -1.825560E-20   -5.023464E-19   -9.728185E-18    1.537066E-16    3.857812E-14
         3.201417E-12    1.750562E-10    6.633877E-09    1.676216E-07    2.542822E-06    1.697585E-05    2.542822E-06    1.676216E-07    6.633877E-09    1.750562E-10
         3.201420E-12    3.857775E-14    1.535487E-16   -9.749508E-18   -5.038445E-19   -1.832697E-20   -5.515814E-22   -1.390021E-23   -2.974403E-25   -5.530632E-27
        -9.304358E-29
  24    -1.388904E-30   -9.778525E-29   -6.241281E-27   -3.469359E-25   -1.636558E-23   -6.417056E-22   -2.066460E-20   -5.391976E-19   -9.727292E-18    1.106435E-16
         2.627967E-14    1.792853E-12    7.656387E-11    2.128272E-09    3.515728E-08    2.538366E-07    3.515728E-08    2.128272E-09    7.656386E-11    1.792853E-12
         2.627940E-14    1.105130E-16   -9.749508E-18   -5.410424E-19   -2.076356E-20   -6.455625E-22   -1.648215E-23   -3.497945E-25   -6.300276E-27   -9.884265E-29
        -1.406062E-30
  25    -1.488708E-32   -1.275157E-30   -9.880067E-29   -6.647193E-27   -3.778010E-25   -1.772842E-23   -6.751413E-22   -2.066129E-20   -5.022325E-19   -8.583915E-18
         2.540505E-17    1.174959E-14    6.524532E-13    2.039081E-11    3.637907E-10    2.803935E-09    3.637907E-10    2.039081E-11    6.524521E-13    1.174940E-14
         2.533483E-17   -8.599370E-18   -5.038445E-19   -2.076356E-20   -6.796356E-22   -1.787562E-23   -3.815768E-25   -6.726020E-27   -1.001852E-28   -1.296267E-30
        -1.517854E-32
  26    -1.084496E-34   -1.186809E-32   -1.161461E-30   -9.740657E-29   -6.807118E-27   -3.878899E-25   -1.772444E-23   -6.414709E-22   -1.824824E-20   -4.046962E-19
        -6.499880E-18   -2.858597E-17    3.093527E-15    1.417507E-13    2.886501E-12    2.389427E-11    2.886501E-12    1.417502E-13    3.093405E-15   -2.861172E-17
        -6.506983E-18   -4.056862E-19   -1.832697E-20   -6.455625E-22   -1.787562E-23   -3.920868E-25   -6.898292E-27   -9.900897E-29   -1.184975E-30   -1.216614E-32
        -1.118713E-34
  27    -4.724671E-37   -7.403766E-35   -9.890189E-33   -1.088258E-30   -9.652520E-29   -6.805097E-27   -3.776139E-25   -1.635586E-23   -5.486964E-22   -1.416303E-20
        -2.794299E-19   -4.062874E-18   -3.249438E-17    3.014670E-16    1.500170E-14    1.510081E-13    1.500164E-14    3.014388E-16   -3.250157E-17   -4.065030E-18
        -2.798472E-19   -1.420736E-20   -5.515814E-22   -1.648215E-23   -3.815768E-25   -6.898292E-27   -9.822227E-29   -1.112864E-30   -1.018287E-32   -7.700931E-35
        -4.998404E-37
  28    -6.551984E-40   -2.584960E-37   -5.770148E-35   -9.188878E-33   -1.087806E-30   -9.734113E-29   -6.641805E-27   -3.466443E-25   -1.381588E-23   -4.181497E-22
        -9.536318E-21   -1.628513E-19   -2.061655E-18   -1.767150E-17   -6.092767E-17    1.957212E-16   -6.093031E-17   -1.767285E-17   -2.062113E-18   -1.629688E-19
        -9.553958E-21   -4.196843E-22   -1.390021E-23   -3.497945E-25   -6.726020E-27   -9.900897E-29   -1.112864E-30   -9.480029E-33   -6.038283E-35   -2.789996E-37
        -7.979526E-40
  29     4.018374E-42   -6.852557E-41   -1.971487E-37   -5.766015E-35   -9.880238E-33   -1.160130E-30   -9.868414E-29   -6.234345E-27   -2.953866E-25   -1.049625E-23
        -2.777193E-22   -5.420375E-21   -7.811972E-20   -8.365538E-19   -5.736754E-18   -2.112445E-17   -5.736876E-18   -8.366251E-19   -7.814210E-20   -5.425126E-21
        -2.783092E-22   -1.053977E-23   -2.974403E-25   -6.300276E-27   -1.001852E-28   -1.184975E-30   -1.018287E-32   -6.038283E-35   -2.153363E-37   -1.624598E-40
         3.578414E-42
  30     1.812070E-44    3.515522E-42   -6.724996E-41   -2.579025E-37   -7.389640E-35   -1.184718E-32   -1.273096E-30   -9.764700E-29   -5.487471E-27   -2.277220E-25
        -6.948134E-24   -1.541018E-22   -2.471358E-21   -2.896792E-20   -2.224764E-19   -1.052761E-18   -2.224816E-19   -2.897088E-20   -2.472208E-21   -1.542568E-22
        -6.964642E-24   -2.287760E-25   -5.530632E-27   -9.884265E-29   -1.296267E-30   -1.216614E-32   -7.700931E-35   -2.789996E-37   -1.624598E-40    3.241589E-42
         1.748500E-44
  31      0.00000        1.813066E-44    4.030408E-42   -6.492362E-40   -4.708275E-37   -1.081681E-34   -1.485517E-32   -1.386463E-30   -9.222506E-29   -4.445949E-27
        -1.551429E-25   -3.870910E-24   -6.844089E-23   -8.702707E-22   -7.490650E-21   -4.239657E-20   -7.490842E-21   -8.703742E-22   -6.846824E-23   -3.875318E-24
        -1.555533E-25   -4.468871E-27   -9.304358E-29   -1.406062E-30   -1.517854E-32   -1.118713E-34   -4.998404E-37   -7.979526E-40    3.578414E-42    1.748500E-44
          0.00000    

 CONCENTRATION WILL BE SAVED ON UNIT 1030 AT END OF TIME STEP   51, STRESS PERIOD    2


  MASS BUDGET FOR ENTIRE MODEL AT END OF TIME STEP   51, STRESS PERIOD   2
  ---------------------------------------------------------------------------------------------------

     CUMULATIVE MASS      M       RATES FOR THIS TIME STEP      M/T          PACKAGE NAME    
     ------------------                 ------------------------                     ----------------

           IN:                                      IN:
           ---                                      ---
     STORAGE-AQUEOUS =  6547930513.2581       STORAGE-AQUEOUS =     1920102.1734     MST                              
                 WEL =  7884000000.0000                   WEL =           0.0000     SSM_WEL-1                        
                 CHD =           0.0000                   CHD =           0.0000     SSM_CHD-1                        

            TOTAL IN = 14431930513.2582              TOTAL IN =     1920102.1734

          OUT:                                     OUT:
          ----                                     ----
     STORAGE-AQUEOUS =  7888695594.5134       STORAGE-AQUEOUS =          80.3953     MST                              
                 WEL =  6543234918.7448                   WEL =     1920021.7782     SSM_WEL-1                        
                 CHD =       7.5562E-18                   CHD =           0.0000     SSM_CHD-1                        

           TOTAL OUT = 14431930513.2582             TOTAL OUT =     1920102.1734

            IN - OUT =      -8.9645E-05              IN - OUT =      -5.5414E-08

 PERCENT DISCREPANCY =          -0.00     PERCENT DISCREPANCY =          -0.00




         TIME SUMMARY AT END OF TIME STEP   51 IN STRESS PERIOD    2
                    SECONDS     MINUTES      HOURS       DAYS        YEARS
                    -----------------------------------------------------------
   TIME STEP LENGTH 2.16991E+06  36165.      602.75      25.115     6.87602E-02
 STRESS PERIOD TIME 1.10665E+08 1.84442E+06  30740.      1280.8      3.5068    
         TOTAL TIME 1.89505E+08 3.15842E+06  52640.      2193.3      6.0051    


end timestep


start timestep kper="2" kstp="52" mode="normal"

 UBDSV1 SAVING  STORAGE-AQUEOUS ON UNIT   1029 AT TIME STEP     52, STRESS PERIOD      2
 UBDSV1 SAVING     FLOW-JA-FACE ON UNIT   1029 AT TIME STEP     52, STRESS PERIOD      2
 UBDSV06 SAVING  SOURCE-SINK MIX IN MODEL GWT_P06-MF6      PACKAGE GWT_P06-MF6     CONNECTED TO MODEL GWT_P06-MF6      PACKAGE SSM              ON UNIT   1029 AT TIME STEP     52, STRESS PERIOD      2
1
  CONCENTRATION IN LAYER   1 AT END OF TIME STEP  52 IN STRESS PERIOD    2
  ---------------------------------------------------------------------------

                1               2               3               4               5               6               7               8               9              10
               11              12              13              14              15              16              17              18              19              20
               21              22              23              24              25              26              27              28              29              30
               31
 ................................................................................................................................................................................................................................................................................................................................................................................................................................................................................................................
   1      0.00000        1.790337E-44    3.432412E-42   -9.404815E-40   -5.429746E-37   -1.193245E-34   -1.602636E-32   -1.473343E-30   -9.686254E-29   -4.624966E-27
        -1.601282E-25   -3.970932E-24   -6.990343E-23   -8.856895E-22   -7.595891E-21   -4.273142E-20   -7.595717E-21   -8.856029E-22   -6.988190E-23   -3.967498E-24
        -1.597991E-25   -4.605811E-27   -9.614947E-29   -1.455600E-30   -1.572340E-32   -1.157485E-34   -5.142055E-37   -7.895102E-40    3.901264E-42    1.858850E-44
          0.00000    
   2     1.790337E-44    3.195961E-42   -2.335342E-40   -3.045846E-37   -8.214088E-35   -1.283917E-32   -1.357909E-30   -1.029091E-28   -5.726283E-27   -2.356457E-25
        -7.139526E-24   -1.574723E-22   -2.515323E-21   -2.937872E-20   -2.248674E-19   -1.057609E-18   -2.248627E-19   -2.937623E-20   -2.514651E-21   -1.573511E-22
        -7.126239E-24   -2.347608E-25   -5.688480E-27   -1.018205E-28   -1.336078E-30   -1.252952E-32   -7.903904E-35   -2.830764E-37   -1.344228E-40    3.487366E-42
         1.859934E-44
   3     3.432412E-42   -2.335342E-40   -2.358257E-37   -6.440992E-35   -1.074006E-32   -1.240668E-30   -1.042774E-28   -6.523229E-27   -3.064539E-25   -1.080878E-23
        -2.841952E-22   -5.519462E-21   -7.923601E-20   -8.440033E-19   -5.735925E-18   -2.078459E-17   -5.735816E-18   -8.439433E-19   -7.921824E-20   -5.515739E-21
        -2.837184E-22   -1.077203E-23   -3.046423E-25   -6.462733E-27   -1.028518E-28   -1.216354E-30   -1.043616E-32   -6.161367E-35   -2.167628E-37   -1.330650E-40
         3.914216E-42
   4    -9.404815E-40   -3.045846E-37   -6.440992E-35   -9.996167E-33   -1.164681E-30   -1.030151E-28   -6.962575E-27   -3.603916E-25   -1.425773E-23   -4.287041E-22
        -9.722952E-21   -1.652064E-19   -2.073904E-18   -1.730364E-17   -4.934431E-17    2.998566E-16   -4.934197E-17   -1.730249E-17   -2.073537E-18   -1.651139E-19
        -9.708614E-21   -4.273982E-22   -1.418266E-23   -3.574714E-25   -6.881721E-27   -1.013650E-28   -1.139243E-30   -9.693936E-33   -6.157033E-35   -2.824496E-37
        -7.831540E-40
   5    -5.429746E-37   -8.214088E-35   -1.074006E-32   -1.164681E-30   -1.021798E-28   -7.139587E-27   -3.930950E-25   -1.690666E-23   -5.635535E-22   -1.446274E-20
        -2.835286E-19   -4.059324E-18   -2.964111E-17    4.117438E-16    1.701953E-14    1.664144E-13    1.701959E-14    4.117681E-16   -2.963510E-17   -4.057607E-18
        -2.831870E-19   -1.442465E-20   -5.609542E-22   -1.678803E-23   -3.892366E-25   -7.046058E-27   -1.004322E-28   -1.138775E-30   -1.042578E-32   -7.889083E-35
        -5.124716E-37
   6    -1.193245E-34   -1.283917E-32   -1.240668E-30   -1.030151E-28   -7.139587E-27   -4.039001E-25   -1.833569E-23   -6.596318E-22   -1.865865E-20   -4.106278E-19
        -6.428222E-18   -1.731053E-17    3.637448E-15    1.573315E-13    3.143669E-12    2.572002E-11    3.143670E-12    1.573319E-13    3.637555E-15   -1.728905E-17
        -6.422330E-18   -4.097661E-19   -1.858661E-20   -6.557217E-22   -1.818585E-23   -3.996110E-25   -7.043980E-27   -1.012975E-28   -1.214973E-30   -1.250770E-32
        -1.154529E-34
   7    -1.602636E-32   -1.357909E-30   -1.042774E-28   -6.962575E-27   -3.930950E-25   -1.833569E-23   -6.944613E-22   -2.113973E-20   -5.095008E-19   -8.393997E-18
         5.285635E-17    1.340924E-14    7.180502E-13    2.208331E-11    3.894825E-10    2.971650E-09    3.894825E-10    2.208331E-11    7.180513E-13    1.340943E-14
         5.291660E-17   -8.380299E-18   -5.079958E-19   -2.103983E-20   -6.899046E-22   -1.818179E-23   -3.890452E-25   -6.876184E-27   -1.027315E-28   -1.333940E-30
        -1.569011E-32
   8    -1.473343E-30   -1.029091E-28   -6.523229E-27   -3.603916E-25   -1.690666E-23   -6.596318E-22   -2.113973E-20   -5.469031E-19   -9.437842E-18    1.562690E-16
         2.965596E-14    1.964309E-12    8.260405E-11    2.268360E-09    3.706529E-08    2.649325E-07    3.706529E-08    2.268360E-09    8.260405E-11    1.964309E-12
         2.965625E-14    1.563881E-16   -9.416545E-18   -5.450497E-19   -2.103648E-20   -6.554836E-22   -1.677813E-23   -3.571731E-25   -6.455609E-27   -1.016779E-28
        -1.453070E-30
   9    -9.686254E-29   -5.726283E-27   -3.064539E-25   -1.425773E-23   -5.635535E-22   -1.865865E-20   -5.095008E-19   -9.437842E-18    2.075789E-16    4.334866E-14
         3.499306E-12    1.883808E-10    7.045505E-09    1.758831E-07    2.639000E-06    1.744167E-05    2.639000E-06    1.758831E-07    7.045505E-09    1.883808E-10
         3.499304E-12    4.334903E-14    2.077346E-16   -9.415654E-18   -5.078814E-19   -1.857918E-20   -5.606295E-22   -1.417193E-23   -3.043566E-25   -5.682040E-27
        -9.602017E-29
  10    -4.624966E-27   -2.356457E-25   -1.080878E-23   -4.287041E-22   -1.446274E-20   -4.106278E-19   -8.393997E-18    1.562690E-16    4.334866E-14    4.224823E-12
         2.802066E-10    1.331932E-08    4.436370E-07    9.859121E-06    1.325977E-04    7.930420E-04    1.325977E-04    9.859121E-06    4.436370E-07    1.331932E-08
         2.802067E-10    4.224819E-12    4.334902E-14    1.563979E-16   -8.378559E-18   -4.096332E-19   -1.441801E-20   -4.271493E-22   -1.076453E-23   -2.345700E-25
        -4.601490E-27
  11    -1.601282E-25   -7.139526E-24   -2.841952E-22   -9.722952E-21   -2.835286E-19   -6.428222E-18    5.285635E-17    2.965596E-14    3.499306E-12    2.802066E-10
         1.635919E-08    6.833146E-07    1.969077E-05    3.747776E-04    4.344999E-03    2.274050E-02    4.344999E-03    3.747776E-04    1.969077E-05    6.833146E-07
         1.635919E-08    2.802067E-10    3.499303E-12    2.965622E-14    5.292577E-17   -6.421122E-18   -2.831095E-19   -9.705155E-21   -2.835978E-22   -7.122750E-24
        -1.597098E-25
  12    -3.970932E-24   -1.574723E-22   -5.519462E-21   -1.652064E-19   -4.059324E-18   -1.731053E-17    1.340924E-14    1.964309E-12    1.883808E-10    1.331932E-08
         6.833146E-07    2.441472E-05    5.818911E-04    8.930401E-03    8.376869E-02    0.363096        8.376869E-02    8.930401E-03    5.818911E-04    2.441472E-05
         6.833146E-07    1.331932E-08    1.883808E-10    1.964308E-12    1.340943E-14   -1.728479E-17   -4.057166E-18   -1.650883E-19   -5.514669E-21   -1.573153E-22
        -3.966454E-24
  13    -6.990343E-23   -2.515323E-21   -7.923601E-20   -2.073904E-18   -2.964111E-17    3.637448E-15    7.180502E-13    8.260405E-11    7.045505E-09    4.436370E-07
         1.969077E-05    5.818911E-04    1.082921E-02    0.122642        0.842088         2.77083        0.842088        0.122642        1.082921E-02    5.818911E-04
         1.969077E-05    4.436370E-07    7.045505E-09    8.260405E-11    7.180514E-13    3.637569E-15   -2.963388E-17   -2.073445E-18   -7.921348E-20   -2.514464E-21
        -6.987573E-23
  14    -8.856895E-22   -2.937872E-20   -8.440033E-19   -1.730364E-17    4.117438E-16    1.573315E-13    2.208331E-11    2.268360E-09    1.758831E-07    9.859121E-06
         3.747776E-04    8.930401E-03    0.122642        0.926461         4.09586         9.31025         4.09586        0.926461        0.122642        8.930401E-03
         3.747776E-04    9.859121E-06    1.758831E-07    2.268360E-09    2.208331E-11    1.573319E-13    4.117719E-16   -1.730228E-17   -8.439317E-19   -2.937573E-20
        -8.855848E-22
  15    -7.595891E-21   -2.248674E-19   -5.735925E-18   -4.934431E-17    1.701953E-14    3.143669E-12    3.894825E-10    3.706529E-08    2.639000E-06    1.325977E-04
         4.344999E-03    8.376869E-02    0.842088         4.09586         11.6697         16.3249         11.6697         4.09586        0.842088        8.376869E-02
         4.344999E-03    1.325977E-04    2.639000E-06    3.706529E-08    3.894825E-10    3.143670E-12    1.701959E-14   -4.934166E-17   -5.735802E-18   -2.248622E-19
        -7.595697E-21
  16    -4.273142E-20   -1.057609E-18   -2.078459E-17    2.998566E-16    1.664144E-13    2.572002E-11    2.971650E-09    2.649325E-07    1.744167E-05    7.930420E-04
         2.274050E-02    0.363096         2.77083         9.31025         16.3249         21.4057         16.3249         9.31025         2.77083        0.363096    
         2.274050E-02    7.930420E-04    1.744167E-05    2.649325E-07    2.971650E-09    2.572002E-11    1.664144E-13    2.998566E-16   -2.078459E-17   -1.057609E-18
        -4.273142E-20
  17    -7.595717E-21   -2.248627E-19   -5.735816E-18   -4.934197E-17    1.701959E-14    3.143670E-12    3.894825E-10    3.706529E-08    2.639000E-06    1.325977E-04
         4.344999E-03    8.376869E-02    0.842088         4.09586         11.6697         16.3249         11.6697         4.09586        0.842088        8.376869E-02
         4.344999E-03    1.325977E-04    2.639000E-06    3.706529E-08    3.894825E-10    3.143669E-12    1.701953E-14   -4.934431E-17   -5.735925E-18   -2.248674E-19
        -7.595891E-21
  18    -8.856029E-22   -2.937623E-20   -8.439433E-19   -1.730249E-17    4.117681E-16    1.573319E-13    2.208331E-11    2.268360E-09    1.758831E-07    9.859121E-06
         3.747776E-04    8.930401E-03    0.122642        0.926461         4.09586         9.31025         4.09586        0.926461        0.122642        8.930401E-03
         3.747776E-04    9.859121E-06    1.758831E-07    2.268360E-09    2.208331E-11    1.573315E-13    4.117438E-16   -1.730364E-17   -8.440033E-19   -2.937872E-20
        -8.856895E-22
  19    -6.988190E-23   -2.514651E-21   -7.921824E-20   -2.073537E-18   -2.963510E-17    3.637555E-15    7.180513E-13    8.260405E-11    7.045505E-09    4.436370E-07
         1.969077E-05    5.818911E-04    1.082921E-02    0.122642        0.842088         2.77083        0.842088        0.122642        1.082921E-02    5.818911E-04
         1.969077E-05    4.436370E-07    7.045505E-09    8.260405E-11    7.180502E-13    3.637448E-15   -2.964111E-17   -2.073904E-18   -7.923601E-20   -2.515323E-21
        -6.990343E-23
  20    -3.967498E-24   -1.573511E-22   -5.515739E-21   -1.651139E-19   -4.057607E-18   -1.728905E-17    1.340943E-14    1.964309E-12    1.883808E-10    1.331932E-08
         6.833146E-07    2.441472E-05    5.818911E-04    8.930401E-03    8.376869E-02    0.363096        8.376869E-02    8.930401E-03    5.818911E-04    2.441472E-05
         6.833146E-07    1.331932E-08    1.883808E-10    1.964309E-12    1.340924E-14   -1.731053E-17   -4.059324E-18   -1.652064E-19   -5.519462E-21   -1.574723E-22
        -3.970932E-24
  21    -1.597991E-25   -7.126239E-24   -2.837184E-22   -9.708614E-21   -2.831870E-19   -6.422330E-18    5.291660E-17    2.965625E-14    3.499304E-12    2.802067E-10
         1.635919E-08    6.833146E-07    1.969077E-05    3.747776E-04    4.344999E-03    2.274050E-02    4.344999E-03    3.747776E-04    1.969077E-05    6.833146E-07
         1.635919E-08    2.802066E-10    3.499306E-12    2.965596E-14    5.285635E-17   -6.428222E-18   -2.835286E-19   -9.722952E-21   -2.841952E-22   -7.139526E-24
        -1.601282E-25
  22    -4.605811E-27   -2.347608E-25   -1.077203E-23   -4.273982E-22   -1.442465E-20   -4.097661E-19   -8.380299E-18    1.563881E-16    4.334903E-14    4.224819E-12
         2.802067E-10    1.331932E-08    4.436370E-07    9.859121E-06    1.325977E-04    7.930420E-04    1.325977E-04    9.859121E-06    4.436370E-07    1.331932E-08
         2.802066E-10    4.224823E-12    4.334866E-14    1.562690E-16   -8.393997E-18   -4.106278E-19   -1.446274E-20   -4.287041E-22   -1.080878E-23   -2.356457E-25
        -4.624966E-27
  23    -9.614947E-29   -5.688480E-27   -3.046423E-25   -1.418266E-23   -5.609542E-22   -1.858661E-20   -5.079958E-19   -9.416545E-18    2.077346E-16    4.334902E-14
         3.499303E-12    1.883808E-10    7.045505E-09    1.758831E-07    2.639000E-06    1.744167E-05    2.639000E-06    1.758831E-07    7.045505E-09    1.883808E-10
         3.499306E-12    4.334866E-14    2.075789E-16   -9.437842E-18   -5.095008E-19   -1.865865E-20   -5.635535E-22   -1.425773E-23   -3.064539E-25   -5.726283E-27
        -9.686254E-29
  24    -1.455600E-30   -1.018205E-28   -6.462733E-27   -3.574714E-25   -1.678803E-23   -6.557217E-22   -2.103983E-20   -5.450497E-19   -9.415654E-18    1.563979E-16
         2.965622E-14    1.964308E-12    8.260405E-11    2.268360E-09    3.706529E-08    2.649325E-07    3.706529E-08    2.268360E-09    8.260405E-11    1.964309E-12
         2.965596E-14    1.562690E-16   -9.437842E-18   -5.469031E-19   -2.113973E-20   -6.596318E-22   -1.690666E-23   -3.603916E-25   -6.523229E-27   -1.029091E-28
        -1.473343E-30
  25    -1.572340E-32   -1.336078E-30   -1.028518E-28   -6.881721E-27   -3.892366E-25   -1.818585E-23   -6.899046E-22   -2.103648E-20   -5.078814E-19   -8.378559E-18
         5.292577E-17    1.340943E-14    7.180514E-13    2.208331E-11    3.894825E-10    2.971650E-09    3.894825E-10    2.208331E-11    7.180502E-13    1.340924E-14
         5.285635E-17   -8.393997E-18   -5.095008E-19   -2.113973E-20   -6.944613E-22   -1.833569E-23   -3.930950E-25   -6.962575E-27   -1.042774E-28   -1.357909E-30
        -1.602636E-32
  26    -1.157485E-34   -1.252952E-32   -1.216354E-30   -1.013650E-28   -7.046058E-27   -3.996110E-25   -1.818179E-23   -6.554836E-22   -1.857918E-20   -4.096332E-19
        -6.421122E-18   -1.728479E-17    3.637569E-15    1.573319E-13    3.143670E-12    2.572002E-11    3.143669E-12    1.573315E-13    3.637448E-15   -1.731053E-17
        -6.428222E-18   -4.106278E-19   -1.865865E-20   -6.596318E-22   -1.833569E-23   -4.039001E-25   -7.139587E-27   -1.030151E-28   -1.240668E-30   -1.283917E-32
        -1.193245E-34
  27    -5.142055E-37   -7.903904E-35   -1.043616E-32   -1.139243E-30   -1.004322E-28   -7.043980E-27   -3.890452E-25   -1.677813E-23   -5.606295E-22   -1.441801E-20
        -2.831095E-19   -4.057166E-18   -2.963388E-17    4.117719E-16    1.701959E-14    1.664144E-13    1.701953E-14    4.117438E-16   -2.964111E-17   -4.059324E-18
        -2.835286E-19   -1.446274E-20   -5.635535E-22   -1.690666E-23   -3.930950E-25   -7.139587E-27   -1.021798E-28   -1.164681E-30   -1.074006E-32   -8.214088E-35
        -5.429746E-37
  28    -7.895102E-40   -2.830764E-37   -6.161367E-35   -9.693936E-33   -1.138775E-30   -1.012975E-28   -6.876184E-27   -3.571731E-25   -1.417193E-23   -4.271493E-22
        -9.705155E-21   -1.650883E-19   -2.073445E-18   -1.730228E-17   -4.934166E-17    2.998566E-16   -4.934431E-17   -1.730364E-17   -2.073904E-18   -1.652064E-19
        -9.722952E-21   -4.287041E-22   -1.425773E-23   -3.603916E-25   -6.962575E-27   -1.030151E-28   -1.164681E-30   -9.996167E-33   -6.440992E-35   -3.045846E-37
        -9.404814E-40
  29     3.901264E-42   -1.344228E-40   -2.167628E-37   -6.157033E-35   -1.042578E-32   -1.214973E-30   -1.027315E-28   -6.455609E-27   -3.043566E-25   -1.076453E-23
        -2.835978E-22   -5.514669E-21   -7.921348E-20   -8.439317E-19   -5.735802E-18   -2.078459E-17   -5.735925E-18   -8.440033E-19   -7.923601E-20   -5.519462E-21
        -2.841952E-22   -1.080878E-23   -3.064539E-25   -6.523229E-27   -1.042774E-28   -1.240668E-30   -1.074006E-32   -6.440992E-35   -2.358257E-37   -2.335341E-40
         3.432412E-42
  30     1.858850E-44    3.487366E-42   -1.330650E-40   -2.824496E-37   -7.889083E-35   -1.250770E-32   -1.333940E-30   -1.016779E-28   -5.682040E-27   -2.345700E-25
        -7.122750E-24   -1.573153E-22   -2.514464E-21   -2.937573E-20   -2.248622E-19   -1.057609E-18   -2.248674E-19   -2.937872E-20   -2.515323E-21   -1.574723E-22
        -7.139526E-24   -2.356457E-25   -5.726283E-27   -1.029091E-28   -1.357909E-30   -1.283917E-32   -8.214088E-35   -3.045846E-37   -2.335341E-40    3.195961E-42
         1.790337E-44
  31      0.00000        1.859934E-44    3.914216E-42   -7.831540E-40   -5.124716E-37   -1.154529E-34   -1.569011E-32   -1.453070E-30   -9.602017E-29   -4.601490E-27
        -1.597098E-25   -3.966454E-24   -6.987573E-23   -8.855848E-22   -7.595697E-21   -4.273142E-20   -7.595891E-21   -8.856895E-22   -6.990343E-23   -3.970932E-24
        -1.601282E-25   -4.624966E-27   -9.686254E-29   -1.473343E-30   -1.602636E-32   -1.193245E-34   -5.429746E-37   -9.404814E-40    3.432412E-42    1.790337E-44
          0.00000    

 CONCENTRATION WILL BE SAVED ON UNIT 1030 AT END OF TIME STEP   52, STRESS PERIOD    2


  MASS BUDGET FOR ENTIRE MODEL AT END OF TIME STEP   52, STRESS PERIOD   2
  ---------------------------------------------------------------------------------------------------

     CUMULATIVE MASS      M       RATES FOR THIS TIME STEP      M/T          PACKAGE NAME    
     ------------------                 ------------------------                     ----------------

           IN:                                      IN:
           ---                                      ---
     STORAGE-AQUEOUS =  6594380824.1293       STORAGE-AQUEOUS =     1849528.3598     MST                              
                 WEL =  7884000000.0000                   WEL =           0.0000     SSM_WEL-1                        
                 CHD =           0.0000                   CHD =           0.0000     SSM_CHD-1                        

            TOTAL IN = 14478380824.1293              TOTAL IN =     1849528.3598

          OUT:                                     OUT:
          ----                                     ----
     STORAGE-AQUEOUS =  7888697491.8840       STORAGE-AQUEOUS =          75.5483     MST                              
                 WEL =  6589683332.2454                   WEL =     1849452.8115     SSM_WEL-1                        
                 CHD =       7.5562E-18                   CHD =           0.0000     SSM_CHD-1                        

           TOTAL OUT = 14478380824.1294             TOTAL OUT =     1849528.3598

            IN - OUT =      -9.1553E-05              IN - OUT =      -5.2620E-08

 PERCENT DISCREPANCY =          -0.00     PERCENT DISCREPANCY =          -0.00




         TIME SUMMARY AT END OF TIME STEP   52 IN STRESS PERIOD    2
                    SECONDS     MINUTES      HOURS       DAYS        YEARS
                    -----------------------------------------------------------
   TIME STEP LENGTH 2.16991E+06  36165.      602.75      25.115     6.87602E-02
 STRESS PERIOD TIME 1.12835E+08 1.88059E+06  31343.      1306.0      3.5755    
         TOTAL TIME 1.91675E+08 3.19459E+06  53243.      2218.5      6.0738    


end timestep


start timestep kper="2" kstp="53" mode="normal"

 UBDSV1 SAVING  STORAGE-AQUEOUS ON UNIT   1029 AT TIME STEP     53, STRESS PERIOD      2
 UBDSV1 SAVING     FLOW-JA-FACE ON UNIT   1029 AT TIME STEP     53, STRESS PERIOD      2
 UBDSV06 SAVING  SOURCE-SINK MIX IN MODEL GWT_P06-MF6      PACKAGE GWT_P06-MF6     CONNECTED TO MODEL GWT_P06-MF6      PACKAGE SSM              ON UNIT   1029 AT TIME STEP     53, STRESS PERIOD      2
1
  CONCENTRATION IN LAYER   1 AT END OF TIME STEP  53 IN STRESS PERIOD    2
  ---------------------------------------------------------------------------

                1               2               3               4               5               6               7               8               9              10
               11              12              13              14              15              16              17              18              19              20
               21              22              23              24              25              26              27              28              29              30
               31
 ................................................................................................................................................................................................................................................................................................................................................................................................................................................................................................................
   1      0.00000        1.830601E-44    3.259055E-42   -1.095167E-39   -5.889246E-37   -1.271847E-34   -1.691387E-32   -1.543329E-30   -1.008123E-28   -4.785556E-27
        -1.648126E-25   -4.068441E-24   -7.136199E-23   -9.011972E-22   -7.701797E-21   -4.306673E-20   -7.701622E-21   -9.011096E-22   -7.134018E-23   -4.064952E-24
        -1.644770E-25   -4.765943E-27   -1.000787E-28   -1.524985E-30   -1.659902E-32   -1.234486E-34   -5.586984E-37   -9.355714E-40    3.758420E-42    1.904374E-44
          0.00000    
   2     1.830601E-44    3.136574E-42   -3.109569E-40   -3.318368E-37   -8.754970E-35   -1.354344E-32   -1.422025E-30   -1.071156E-28   -5.927642E-27   -2.426820E-25
        -7.317886E-24   -1.607397E-22   -2.558973E-21   -2.978904E-20   -2.272330E-19   -1.062180E-18   -2.272283E-19   -2.978653E-20   -2.558295E-21   -1.606170E-22
        -7.304384E-24   -2.417792E-25   -5.888904E-27   -1.059951E-28   -1.399450E-30   -1.322179E-32   -8.431272E-35   -3.092810E-37   -2.064193E-40    3.446406E-42
         1.905553E-44
   3     3.259055E-42   -3.109569E-40   -2.576495E-37   -6.865271E-35   -1.132283E-32   -1.298578E-30   -1.085105E-28   -6.752720E-27   -3.156888E-25   -1.108322E-23
        -2.901771E-22   -5.614929E-21   -8.033124E-20   -8.510508E-19   -5.726795E-18   -2.037730E-17   -5.726685E-18   -8.509905E-19   -8.031335E-20   -5.611171E-21
        -2.896942E-22   -1.104586E-23   -3.138393E-25   -6.690694E-27   -1.070426E-28   -1.273441E-30   -1.100734E-32   -6.573724E-35   -2.376743E-37   -2.049749E-40
         3.772350E-42
   4    -1.095167E-39   -3.318368E-37   -6.865271E-35   -1.053590E-32   -1.218548E-30   -1.071583E-28   -7.206060E-27   -3.712505E-25   -1.462256E-23   -4.378728E-22
        -9.893799E-21   -1.674233E-19   -2.083351E-18   -1.685354E-17   -3.637951E-17    4.131860E-16   -3.637715E-17   -1.685239E-17   -2.082982E-18   -1.673302E-19
        -9.879333E-21   -4.365500E-22   -1.454619E-23   -3.682675E-25   -7.123137E-27   -1.054594E-28   -1.192254E-30   -1.022222E-32   -6.569181E-35   -3.086192E-37
        -9.287988E-40
   5    -5.889246E-37   -8.754970E-35   -1.132283E-32   -1.218548E-30   -1.062725E-28   -7.387937E-27   -4.048979E-25   -1.733993E-23   -5.757249E-22   -1.472053E-20
        -2.871128E-19   -4.043973E-18   -2.634932E-17    5.329029E-16    1.920441E-14    1.829172E-13    1.920447E-14    5.329272E-16   -2.634328E-17   -4.042253E-18
        -2.867696E-19   -1.468209E-20   -5.730907E-22   -1.721920E-23   -4.009557E-25   -7.292003E-27   -1.044731E-28   -1.191768E-30   -1.099652E-32   -8.415727E-35
        -5.568656E-37
   6    -1.271847E-34   -1.354344E-32   -1.298578E-30   -1.071583E-28   -7.387937E-27   -4.160054E-25   -1.880527E-23   -6.739354E-22   -1.899288E-20   -4.153277E-19
        -6.323888E-18   -4.558301E-18    4.231882E-15    1.741281E-13    3.417840E-12    2.764627E-11    3.417841E-12    1.741285E-13    4.231989E-15   -4.536808E-18
        -6.317996E-18   -4.144621E-19   -1.892018E-20   -6.699717E-22   -1.865275E-23   -4.116226E-25   -7.289867E-27   -1.053896E-28   -1.272009E-30   -1.319904E-32
        -1.231384E-34
   7    -1.691387E-32   -1.422025E-30   -1.085105E-28   -7.206060E-27   -4.048979E-25   -1.880527E-23   -7.095336E-22   -2.151838E-20   -5.147581E-19   -8.141167E-18
         8.346806E-17    1.521675E-14    7.885144E-13    2.387960E-11    4.164412E-10    3.145733E-09    4.164412E-10    2.387960E-11    7.885155E-13    1.521694E-14
         8.352769E-17   -8.127482E-18   -5.132462E-19   -2.141754E-20   -7.049140E-22   -1.864862E-23   -4.007597E-25   -7.117448E-27   -1.069185E-28   -1.397234E-30
        -1.656431E-32
   8    -1.543329E-30   -1.071156E-28   -6.752720E-27   -3.712505E-25   -1.733993E-23   -6.739354E-22   -2.151838E-20   -5.522947E-19   -9.061989E-18    2.070031E-16
         3.332509E-14    2.147985E-12    8.899007E-11    2.414601E-09    3.903328E-08    2.762453E-07    3.903328E-08    2.414601E-09    8.899007E-11    2.147985E-12
         3.332538E-14    2.071207E-16   -9.040720E-18   -5.504329E-19   -2.141416E-20   -6.697302E-22   -1.720912E-23   -3.679624E-25   -6.683378E-27   -1.058480E-28
        -1.522363E-30
   9    -1.008123E-28   -5.927642E-27   -3.156888E-25   -1.462256E-23   -5.757249E-22   -1.899288E-20   -5.147581E-19   -9.061989E-18    2.674300E-16    4.852742E-14
         3.817878E-12    2.024283E-10    7.473352E-09    1.843527E-07    2.736304E-06    1.790661E-05    2.736304E-06    1.843527E-07    7.473352E-09    2.024283E-10
         3.817876E-12    4.852778E-14    2.675837E-16   -9.039832E-18   -5.131313E-19   -1.891268E-20   -5.727614E-22   -1.453527E-23   -3.135472E-25   -5.882297E-27
        -9.994551E-29
  10    -4.785556E-27   -2.426820E-25   -1.108322E-23   -4.378728E-22   -1.472053E-20   -4.153277E-19   -8.141167E-18    2.070031E-16    4.852742E-14    4.606132E-12
         3.007078E-10    1.409565E-08    4.633165E-07    1.017115E-05    1.353139E-04    8.014448E-04    1.353139E-04    1.017115E-05    4.633165E-07    1.409565E-08
         3.007078E-10    4.606129E-12    4.852776E-14    2.071303E-16   -8.125746E-18   -4.143287E-19   -1.467539E-20   -4.362977E-22   -1.103823E-23   -2.415844E-25
        -4.761516E-27
  11    -1.648126E-25   -7.317886E-24   -2.901771E-22   -9.893799E-21   -2.871128E-19   -6.323888E-18    8.346806E-17    3.332509E-14    3.817878E-12    3.007078E-10
         1.729885E-08    7.121981E-07    2.024074E-05    3.804258E-04    4.363176E-03    2.262415E-02    4.363176E-03    3.804258E-04    2.024074E-05    7.121981E-07
         1.729885E-08    3.007078E-10    3.817875E-12    3.332535E-14    8.353671E-17   -6.316790E-18   -2.866917E-19   -9.875844E-21   -2.895722E-22   -7.300839E-24
        -1.643860E-25
  12    -4.068441E-24   -1.607397E-22   -5.614929E-21   -1.674233E-19   -4.043973E-18   -4.558301E-18    1.521675E-14    2.147985E-12    2.024283E-10    1.409565E-08
         7.121981E-07    2.506341E-05    5.887447E-04    8.920169E-03    8.281173E-02    0.355987        8.281173E-02    8.920169E-03    5.887447E-04    2.506341E-05
         7.121981E-07    1.409565E-08    2.024283E-10    2.147985E-12    1.521694E-14   -4.532578E-18   -4.041812E-18   -1.673046E-19   -5.610093E-21   -1.605808E-22
        -4.063893E-24
  13    -7.136199E-23   -2.558973E-21   -8.033124E-20   -2.083351E-18   -2.634932E-17    4.231882E-15    7.885144E-13    8.899007E-11    7.473352E-09    4.633165E-07
         2.024074E-05    5.887447E-04    1.079339E-02    0.120684        0.821187         2.68594        0.821187        0.120684        1.079339E-02    5.887447E-04
         2.024074E-05    4.633165E-07    7.473352E-09    8.899007E-11    7.885156E-13    4.232003E-15   -2.634205E-17   -2.082890E-18   -8.030857E-20   -2.558107E-21
        -7.133393E-23
  14    -9.011972E-22   -2.978904E-20   -8.510508E-19   -1.685354E-17    5.329029E-16    1.741281E-13    2.387960E-11    2.414601E-09    1.843527E-07    1.017115E-05
         3.804258E-04    8.920169E-03    0.120684        0.901166         3.95967         8.97916         3.95967        0.901166        0.120684        8.920169E-03
         3.804258E-04    1.017115E-05    1.843527E-07    2.414601E-09    2.387960E-11    1.741285E-13    5.329310E-16   -1.685218E-17   -8.509788E-19   -2.978602E-20
        -9.010913E-22
  15    -7.701797E-21   -2.272330E-19   -5.726795E-18   -3.637951E-17    1.920441E-14    3.417840E-12    4.164412E-10    3.903328E-08    2.736304E-06    1.353139E-04
         4.363176E-03    8.281173E-02    0.821187         3.95967         11.2564         15.7305         11.2564         3.95967        0.821187        8.281173E-02
         4.363176E-03    1.353139E-04    2.736304E-06    3.903328E-08    4.164412E-10    3.417841E-12    1.920447E-14   -3.637684E-17   -5.726671E-18   -2.272277E-19
        -7.701602E-21
  16    -4.306673E-20   -1.062180E-18   -2.037730E-17    4.131860E-16    1.829172E-13    2.764627E-11    3.145733E-09    2.762453E-07    1.790661E-05    8.014448E-04
         2.262415E-02    0.355987         2.68594         8.97916         15.7305         20.6198         15.7305         8.97916         2.68594        0.355987    
         2.262415E-02    8.014448E-04    1.790661E-05    2.762453E-07    3.145733E-09    2.764627E-11    1.829172E-13    4.131860E-16   -2.037730E-17   -1.062180E-18
        -4.306673E-20
  17    -7.701622E-21   -2.272283E-19   -5.726685E-18   -3.637715E-17    1.920447E-14    3.417841E-12    4.164412E-10    3.903328E-08    2.736304E-06    1.353139E-04
         4.363176E-03    8.281173E-02    0.821187         3.95967         11.2564         15.7305         11.2564         3.95967        0.821187        8.281173E-02
         4.363176E-03    1.353139E-04    2.736304E-06    3.903328E-08    4.164412E-10    3.417840E-12    1.920441E-14   -3.637951E-17   -5.726795E-18   -2.272330E-19
        -7.701797E-21
  18    -9.011096E-22   -2.978653E-20   -8.509905E-19   -1.685239E-17    5.329272E-16    1.741285E-13    2.387960E-11    2.414601E-09    1.843527E-07    1.017115E-05
         3.804258E-04    8.920169E-03    0.120684        0.901166         3.95967         8.97916         3.95967        0.901166        0.120684        8.920169E-03
         3.804258E-04    1.017115E-05    1.843527E-07    2.414601E-09    2.387960E-11    1.741281E-13    5.329029E-16   -1.685354E-17   -8.510508E-19   -2.978904E-20
        -9.011972E-22
  19    -7.134018E-23   -2.558295E-21   -8.031335E-20   -2.082982E-18   -2.634328E-17    4.231989E-15    7.885155E-13    8.899007E-11    7.473352E-09    4.633165E-07
         2.024074E-05    5.887447E-04    1.079339E-02    0.120684        0.821187         2.68594        0.821187        0.120684        1.079339E-02    5.887447E-04
         2.024074E-05    4.633165E-07    7.473352E-09    8.899007E-11    7.885144E-13    4.231882E-15   -2.634932E-17   -2.083351E-18   -8.033124E-20   -2.558973E-21
        -7.136199E-23
  20    -4.064952E-24   -1.606170E-22   -5.611171E-21   -1.673302E-19   -4.042253E-18   -4.536808E-18    1.521694E-14    2.147985E-12    2.024283E-10    1.409565E-08
         7.121981E-07    2.506341E-05    5.887447E-04    8.920169E-03    8.281173E-02    0.355987        8.281173E-02    8.920169E-03    5.887447E-04    2.506341E-05
         7.121981E-07    1.409565E-08    2.024283E-10    2.147985E-12    1.521675E-14   -4.558299E-18   -4.043973E-18   -1.674233E-19   -5.614929E-21   -1.607397E-22
        -4.068441E-24
  21    -1.644770E-25   -7.304384E-24   -2.896942E-22   -9.879333E-21   -2.867696E-19   -6.317996E-18    8.352769E-17    3.332538E-14    3.817876E-12    3.007078E-10
         1.729885E-08    7.121981E-07    2.024074E-05    3.804258E-04    4.363176E-03    2.262415E-02    4.363176E-03    3.804258E-04    2.024074E-05    7.121981E-07
         1.729885E-08    3.007078E-10    3.817878E-12    3.332509E-14    8.346806E-17   -6.323888E-18   -2.871128E-19   -9.893798E-21   -2.901771E-22   -7.317886E-24
        -1.648126E-25
  22    -4.765943E-27   -2.417792E-25   -1.104586E-23   -4.365500E-22   -1.468209E-20   -4.144621E-19   -8.127482E-18    2.071207E-16    4.852778E-14    4.606129E-12
         3.007078E-10    1.409565E-08    4.633165E-07    1.017115E-05    1.353139E-04    8.014448E-04    1.353139E-04    1.017115E-05    4.633165E-07    1.409565E-08
         3.007078E-10    4.606132E-12    4.852742E-14    2.070031E-16   -8.141167E-18   -4.153277E-19   -1.472053E-20   -4.378728E-22   -1.108322E-23   -2.426820E-25
        -4.785556E-27
  23    -1.000787E-28   -5.888904E-27   -3.138393E-25   -1.454619E-23   -5.730907E-22   -1.892018E-20   -5.132462E-19   -9.040720E-18    2.675837E-16    4.852776E-14
         3.817875E-12    2.024283E-10    7.473352E-09    1.843527E-07    2.736304E-06    1.790661E-05    2.736304E-06    1.843527E-07    7.473352E-09    2.024283E-10
         3.817878E-12    4.852742E-14    2.674300E-16   -9.061989E-18   -5.147581E-19   -1.899288E-20   -5.757249E-22   -1.462256E-23   -3.156888E-25   -5.927642E-27
        -1.008123E-28
  24    -1.524985E-30   -1.059951E-28   -6.690694E-27   -3.682675E-25   -1.721920E-23   -6.699717E-22   -2.141754E-20   -5.504329E-19   -9.039832E-18    2.071303E-16
         3.332535E-14    2.147985E-12    8.899007E-11    2.414601E-09    3.903328E-08    2.762453E-07    3.903328E-08    2.414601E-09    8.899007E-11    2.147985E-12
         3.332509E-14    2.070031E-16   -9.061989E-18   -5.522947E-19   -2.151838E-20   -6.739354E-22   -1.733993E-23   -3.712505E-25   -6.752720E-27   -1.071156E-28
        -1.543329E-30
  25    -1.659902E-32   -1.399450E-30   -1.070426E-28   -7.123137E-27   -4.009557E-25   -1.865275E-23   -7.049140E-22   -2.141416E-20   -5.131313E-19   -8.125746E-18
         8.353671E-17    1.521694E-14    7.885156E-13    2.387960E-11    4.164412E-10    3.145733E-09    4.164412E-10    2.387960E-11    7.885144E-13    1.521675E-14
         8.346806E-17   -8.141167E-18   -5.147581E-19   -2.151838E-20   -7.095336E-22   -1.880527E-23   -4.048979E-25   -7.206060E-27   -1.085105E-28   -1.422025E-30
        -1.691387E-32
  26    -1.234486E-34   -1.322179E-32   -1.273441E-30   -1.054594E-28   -7.292003E-27   -4.116226E-25   -1.864862E-23   -6.697302E-22   -1.891268E-20   -4.143287E-19
        -6.316790E-18   -4.532578E-18    4.232003E-15    1.741285E-13    3.417841E-12    2.764627E-11    3.417840E-12    1.741281E-13    4.231882E-15   -4.558299E-18
        -6.323888E-18   -4.153277E-19   -1.899288E-20   -6.739354E-22   -1.880527E-23   -4.160054E-25   -7.387937E-27   -1.071583E-28   -1.298578E-30   -1.354344E-32
        -1.271847E-34
  27    -5.586984E-37   -8.431272E-35   -1.100734E-32   -1.192254E-30   -1.044731E-28   -7.289867E-27   -4.007597E-25   -1.720912E-23   -5.727614E-22   -1.467539E-20
        -2.866917E-19   -4.041812E-18   -2.634205E-17    5.329310E-16    1.920447E-14    1.829172E-13    1.920441E-14    5.329029E-16   -2.634932E-17   -4.043973E-18
        -2.871128E-19   -1.472053E-20   -5.757249E-22   -1.733993E-23   -4.048979E-25   -7.387937E-27   -1.062725E-28   -1.218548E-30   -1.132283E-32   -8.754970E-35
        -5.889246E-37
  28    -9.355714E-40   -3.092810E-37   -6.573724E-35   -1.022222E-32   -1.191768E-30   -1.053896E-28   -7.117448E-27   -3.679624E-25   -1.453527E-23   -4.362977E-22
        -9.875844E-21   -1.673046E-19   -2.082890E-18   -1.685218E-17   -3.637684E-17    4.131860E-16   -3.637951E-17   -1.685354E-17   -2.083351E-18   -1.674233E-19
        -9.893798E-21   -4.378728E-22   -1.462256E-23   -3.712505E-25   -7.206060E-27   -1.071583E-28   -1.218548E-30   -1.053590E-32   -6.865271E-35   -3.318367E-37
        -1.095167E-39
  29     3.758420E-42   -2.064193E-40   -2.376743E-37   -6.569181E-35   -1.099652E-32   -1.272009E-30   -1.069185E-28   -6.683378E-27   -3.135472E-25   -1.103823E-23
        -2.895722E-22   -5.610093E-21   -8.030857E-20   -8.509788E-19   -5.726671E-18   -2.037730E-17   -5.726795E-18   -8.510508E-19   -8.033124E-20   -5.614929E-21
        -2.901771E-22   -1.108322E-23   -3.156888E-25   -6.752720E-27   -1.085105E-28   -1.298578E-30   -1.132283E-32   -6.865271E-35   -2.576495E-37   -3.109568E-40
         3.259055E-42
  30     1.904374E-44    3.446406E-42   -2.049749E-40   -3.086192E-37   -8.415727E-35   -1.319904E-32   -1.397234E-30   -1.058480E-28   -5.882297E-27   -2.415844E-25
        -7.300839E-24   -1.605808E-22   -2.558107E-21   -2.978602E-20   -2.272277E-19   -1.062180E-18   -2.272330E-19   -2.978904E-20   -2.558973E-21   -1.607397E-22
        -7.317886E-24   -2.426820E-25   -5.927642E-27   -1.071156E-28   -1.422025E-30   -1.354344E-32   -8.754970E-35   -3.318367E-37   -3.109568E-40    3.136575E-42
         1.830601E-44
  31      0.00000        1.905553E-44    3.772350E-42   -9.287988E-40   -5.568656E-37   -1.231384E-34   -1.656431E-32   -1.522363E-30   -9.994551E-29   -4.761516E-27
        -1.643860E-25   -4.063893E-24   -7.133393E-23   -9.010913E-22   -7.701602E-21   -4.306673E-20   -7.701797E-21   -9.011972E-22   -7.136199E-23   -4.068441E-24
        -1.648126E-25   -4.785556E-27   -1.008123E-28   -1.543329E-30   -1.691387E-32   -1.271847E-34   -5.889246E-37   -1.095167E-39    3.259055E-42    1.830601E-44
          0.00000    

 CONCENTRATION WILL BE SAVED ON UNIT 1030 AT END OF TIME STEP   53, STRESS PERIOD    2


  MASS BUDGET FOR ENTIRE MODEL AT END OF TIME STEP   53, STRESS PERIOD   2
  ---------------------------------------------------------------------------------------------------

     CUMULATIVE MASS      M       RATES FOR THIS TIME STEP      M/T          PACKAGE NAME    
     ------------------                 ------------------------                     ----------------

           IN:                                      IN:
           ---                                      ---
     STORAGE-AQUEOUS =  6639125644.9580       STORAGE-AQUEOUS =     1781620.2631     MST                              
                 WEL =  7884000000.0000                   WEL =           0.0000     SSM_WEL-1                        
                 CHD =           0.0000                   CHD =           0.0000     SSM_CHD-1                        

            TOTAL IN = 14523125644.9580              TOTAL IN =     1781620.2631

          OUT:                                     OUT:
          ----                                     ----
     STORAGE-AQUEOUS =  7888699269.0653       STORAGE-AQUEOUS =          70.7627     MST                              
                 WEL =  6634426375.8928                   WEL =     1781549.5005     SSM_WEL-1                        
                 CHD =       7.5562E-18                   CHD =           0.0000     SSM_CHD-1                        

           TOTAL OUT = 14523125644.9581             TOTAL OUT =     1781620.2631

            IN - OUT =      -9.1553E-05              IN - OUT =      -5.2387E-08

 PERCENT DISCREPANCY =          -0.00     PERCENT DISCREPANCY =          -0.00




         TIME SUMMARY AT END OF TIME STEP   53 IN STRESS PERIOD    2
                    SECONDS     MINUTES      HOURS       DAYS        YEARS
                    -----------------------------------------------------------
   TIME STEP LENGTH 2.16991E+06  36165.      602.75      25.115     6.87602E-02
 STRESS PERIOD TIME 1.15005E+08 1.91675E+06  31946.      1331.1      3.6443    
         TOTAL TIME 1.93845E+08 3.23075E+06  53846.      2243.6      6.1426    


end timestep


start timestep kper="2" kstp="54" mode="normal"

 UBDSV1 SAVING  STORAGE-AQUEOUS ON UNIT   1029 AT TIME STEP     54, STRESS PERIOD      2
 UBDSV1 SAVING     FLOW-JA-FACE ON UNIT   1029 AT TIME STEP     54, STRESS PERIOD      2
 UBDSV06 SAVING  SOURCE-SINK MIX IN MODEL GWT_P06-MF6      PACKAGE GWT_P06-MF6     CONNECTED TO MODEL GWT_P06-MF6      PACKAGE SSM              ON UNIT   1029 AT TIME STEP     54, STRESS PERIOD      2
1
  CONCENTRATION IN LAYER   1 AT END OF TIME STEP  54 IN STRESS PERIOD    2
  ---------------------------------------------------------------------------

                1               2               3               4               5               6               7               8               9              10
               11              12              13              14              15              16              17              18              19              20
               21              22              23              24              25              26              27              28              29              30
               31
 ................................................................................................................................................................................................................................................................................................................................................................................................................................................................................................................
   1      0.00000        1.868997E-44    3.056046E-42   -1.262789E-39   -6.378411E-37   -1.354708E-34   -1.784263E-32   -1.616110E-30   -1.048965E-28   -4.950745E-27
        -1.696084E-25   -4.167872E-24   -7.284417E-23   -9.168977E-22   -7.808540E-21   -4.340230E-20   -7.808363E-21   -9.168092E-22   -7.282207E-23   -4.164327E-24
        -1.692663E-25   -4.930665E-27   -1.041420E-28   -1.597148E-30   -1.751550E-32   -1.315684E-34   -6.060943E-37   -1.094143E-39    3.587622E-42    1.948366E-44
          0.00000    
   2     1.868997E-44    3.062240E-42   -3.951334E-40   -3.608443E-37   -9.324837E-35   -1.428016E-32   -1.488696E-30   -1.114663E-28   -6.134845E-27   -2.498882E-25
        -7.499774E-24   -1.640597E-22   -2.603156E-21   -3.020159E-20   -2.295729E-19   -1.066432E-18   -2.295681E-19   -3.019906E-20   -2.602471E-21   -1.639354E-22
        -7.486055E-24   -2.489671E-25   -6.095153E-27   -1.103130E-28   -1.465357E-30   -1.394611E-32   -8.987113E-35   -3.371963E-37   -2.849103E-40    3.391498E-42
         1.949647E-44
   3     3.056046E-42   -3.951334E-40   -2.808781E-37   -7.312094E-35   -1.193218E-32   -1.358780E-30   -1.128882E-28   -6.988904E-27   -3.251494E-25   -1.136317E-23
        -2.962557E-22   -5.711501E-21   -8.142604E-20   -8.577118E-19   -5.708592E-18   -1.989706E-17   -5.708482E-18   -8.576511E-19   -8.140803E-20   -5.707710E-21
        -2.957667E-22   -1.132519E-23   -3.232612E-25   -6.925317E-27   -1.113771E-28   -1.332796E-30   -1.160472E-32   -7.008176E-35   -2.599520E-37   -2.833743E-40
         3.602593E-42
   4    -1.262789E-39   -3.608443E-37   -7.312094E-35   -1.110014E-32   -1.274533E-30   -1.114425E-28   -7.456640E-27   -3.823760E-25   -1.499482E-23   -4.471914E-22
        -1.006640E-20   -1.696120E-19   -2.090136E-18   -1.631501E-17   -2.192718E-17    5.363258E-16   -2.192481E-17   -1.631384E-17   -2.089765E-18   -1.695185E-19
        -1.005181E-20   -4.458514E-22   -1.491714E-23   -3.793293E-25   -7.371605E-27   -1.096934E-28   -1.247358E-30   -1.077463E-32   -7.003416E-35   -3.364979E-37
        -1.086931E-39
   5    -6.378411E-37   -9.324837E-35   -1.193218E-32   -1.274533E-30   -1.105041E-28   -7.643508E-27   -4.169911E-25   -1.778208E-23   -5.880960E-22   -1.498048E-20
        -2.905784E-19   -4.017882E-18   -2.258816E-17    6.657175E-16    2.156662E-14    2.005717E-13    2.156668E-14    6.657417E-16   -2.258209E-17   -4.016159E-18
        -2.902336E-19   -1.494170E-20   -5.854267E-22   -1.765923E-23   -4.129635E-25   -7.545119E-27   -1.086516E-28   -1.246854E-30   -1.159345E-32   -8.970813E-35
        -6.041577E-37
   6    -1.354708E-34   -1.428016E-32   -1.358780E-30   -1.114425E-28   -7.643508E-27   -4.284084E-25   -1.928451E-23   -6.884734E-22   -1.932927E-20   -4.197429E-19
        -6.191286E-18    9.671994E-18    4.880259E-15    1.922093E-13    3.709769E-12    2.967621E-11    3.709769E-12    1.922096E-13    4.880365E-15    9.693358E-18
        -6.185395E-18   -4.188734E-19   -1.925590E-20   -6.844558E-22   -1.912927E-23   -4.239302E-25   -7.542925E-27   -1.096215E-28   -1.331311E-30   -1.392240E-32
        -1.312428E-34
   7    -1.784263E-32   -1.488696E-30   -1.128882E-28   -7.456640E-27   -4.169911E-25   -1.928451E-23   -7.248526E-22   -2.189899E-20   -5.195510E-19   -7.836027E-18
         1.174225E-16    1.718188E-14    8.641010E-13    2.578368E-11    4.446978E-10    3.326251E-09    4.446978E-10    2.578368E-11    8.641021E-13    1.718207E-14
         1.174815E-16   -7.822356E-18   -5.180324E-19   -2.179720E-20   -7.201697E-22   -1.912507E-23   -4.127631E-25   -7.365761E-27   -1.112490E-28   -1.463059E-30
        -1.747931E-32
   8    -1.616110E-30   -1.114663E-28   -6.988904E-27   -3.823760E-25   -1.778208E-23   -6.884734E-22   -2.189899E-20   -5.571427E-19   -8.615476E-18    2.631148E-16
         3.730575E-14    2.344483E-12    9.573341E-11    2.567099E-09    4.106123E-08    2.877700E-07    4.106123E-08    2.567099E-09    9.573341E-11    2.344484E-12
         3.730603E-14    2.632310E-16   -8.594237E-18   -5.552725E-19   -2.179379E-20   -6.842108E-22   -1.764896E-23   -3.790174E-25   -6.917805E-27   -1.101613E-28
        -1.594431E-30
   9    -1.048965E-28   -6.134845E-27   -3.251494E-25   -1.499482E-23   -5.880960E-22   -1.932927E-20   -5.195510E-19   -8.615476E-18    3.335668E-16    5.413996E-14
         4.158104E-12    2.172198E-10    7.917583E-09    1.930277E-07    2.834671E-06    1.837033E-05    2.834671E-06    1.930277E-07    7.917583E-09    2.172198E-10
         4.158103E-12    5.414032E-14    3.337185E-16   -8.593351E-18   -5.179170E-19   -1.924833E-20   -5.850929E-22   -1.490602E-23   -3.229628E-25   -6.088375E-27
        -1.040047E-28
  10    -4.950745E-27   -2.498882E-25   -1.136317E-23   -4.471914E-22   -1.498048E-20   -4.197429E-19   -7.836027E-18    2.631148E-16    5.413996E-14    5.013122E-12
         3.222620E-10    1.489934E-08    4.833724E-07    1.048412E-05    1.379916E-04    8.095103E-04    1.379916E-04    1.048412E-05    4.833724E-07    1.489934E-08
         3.222620E-10    5.013118E-12    5.414030E-14    2.632404E-16   -7.820625E-18   -4.187395E-19   -1.493493E-20   -4.455958E-22   -1.131743E-23   -2.487684E-25
        -4.926130E-27
  11    -1.696084E-25   -7.499774E-24   -2.962557E-22   -1.006640E-20   -2.905784E-19   -6.191286E-18    1.174225E-16    3.730575E-14    4.158104E-12    3.222620E-10
         1.827058E-08    7.415470E-07    2.078881E-05    3.859120E-04    4.379399E-03    2.250151E-02    4.379399E-03    3.859120E-04    2.078881E-05    7.415470E-07
         1.827058E-08    3.222621E-10    4.158101E-12    3.730600E-14    1.174904E-16   -6.184192E-18   -2.901554E-19   -1.004829E-20   -2.956432E-22   -7.482453E-24
        -1.691735E-25
  12    -4.167872E-24   -1.640597E-22   -5.711501E-21   -1.696120E-19   -4.017882E-18    9.671994E-18    1.718188E-14    2.344483E-12    2.172198E-10    1.489934E-08
         7.415470E-07    2.570814E-05    5.953096E-04    8.906231E-03    8.184628E-02    0.348985        8.184628E-02    8.906231E-03    5.953096E-04    2.570814E-05
         7.415470E-07    1.489934E-08    2.172198E-10    2.344483E-12    1.718207E-14    9.697536E-18   -4.015718E-18   -1.694927E-19   -5.706622E-21   -1.638987E-22
        -4.163252E-24
  13    -7.284417E-23   -2.603156E-21   -8.142604E-20   -2.090136E-18   -2.258816E-17    4.880259E-15    8.641010E-13    9.573341E-11    7.917583E-09    4.833724E-07
         2.078881E-05    5.953096E-04    1.075337E-02    0.118736        0.800783         2.60384        0.800783        0.118736        1.075337E-02    5.953096E-04
         2.078881E-05    4.833724E-07    7.917583E-09    9.573341E-11    8.641021E-13    4.880379E-15   -2.258086E-17   -2.089673E-18   -8.140322E-20   -2.602281E-21
        -7.281575E-23
  14    -9.168977E-22   -3.020159E-20   -8.577118E-19   -1.631501E-17    6.657175E-16    1.922093E-13    2.578368E-11    2.567099E-09    1.930277E-07    1.048412E-05
         3.859120E-04    8.906231E-03    0.118736        0.876564         3.82837         8.66070         3.82837        0.876564        0.118736        8.906231E-03
         3.859120E-04    1.048412E-05    1.930277E-07    2.567099E-09    2.578368E-11    1.922097E-13    6.657455E-16   -1.631364E-17   -8.576394E-19   -3.019855E-20
        -9.167907E-22
  15    -7.808540E-21   -2.295729E-19   -5.708592E-18   -2.192718E-17    2.156662E-14    3.709769E-12    4.446978E-10    4.106123E-08    2.834671E-06    1.379916E-04
         4.379399E-03    8.184628E-02    0.800783         3.82837         10.8583         15.1587         10.8583         3.82837        0.800783        8.184628E-02
         4.379399E-03    1.379916E-04    2.834671E-06    4.106123E-08    4.446977E-10    3.709769E-12    2.156668E-14   -2.192449E-17   -5.708468E-18   -2.295675E-19
        -7.808343E-21
  16    -4.340230E-20   -1.066432E-18   -1.989706E-17    5.363258E-16    2.005717E-13    2.967621E-11    3.326251E-09    2.877700E-07    1.837033E-05    8.095103E-04
         2.250151E-02    0.348985         2.60384         8.66070         15.1587         19.8636         15.1587         8.66070         2.60384        0.348985    
         2.250151E-02    8.095103E-04    1.837033E-05    2.877700E-07    3.326251E-09    2.967621E-11    2.005717E-13    5.363258E-16   -1.989706E-17   -1.066432E-18
        -4.340230E-20
  17    -7.808363E-21   -2.295681E-19   -5.708482E-18   -2.192481E-17    2.156668E-14    3.709769E-12    4.446978E-10    4.106123E-08    2.834671E-06    1.379916E-04
         4.379399E-03    8.184628E-02    0.800783         3.82837         10.8583         15.1587         10.8583         3.82837        0.800783        8.184628E-02
         4.379399E-03    1.379916E-04    2.834671E-06    4.106123E-08    4.446978E-10    3.709769E-12    2.156662E-14   -2.192717E-17   -5.708592E-18   -2.295729E-19
        -7.808540E-21
  18    -9.168092E-22   -3.019906E-20   -8.576511E-19   -1.631384E-17    6.657417E-16    1.922096E-13    2.578368E-11    2.567099E-09    1.930277E-07    1.048412E-05
         3.859120E-04    8.906231E-03    0.118736        0.876564         3.82837         8.66070         3.82837        0.876564        0.118736        8.906231E-03
         3.859120E-04    1.048412E-05    1.930277E-07    2.567099E-09    2.578368E-11    1.922093E-13    6.657175E-16   -1.631501E-17   -8.577118E-19   -3.020159E-20
        -9.168977E-22
  19    -7.282207E-23   -2.602471E-21   -8.140803E-20   -2.089765E-18   -2.258209E-17    4.880365E-15    8.641021E-13    9.573341E-11    7.917583E-09    4.833724E-07
         2.078881E-05    5.953096E-04    1.075337E-02    0.118736        0.800783         2.60384        0.800783        0.118736        1.075337E-02    5.953096E-04
         2.078881E-05    4.833724E-07    7.917583E-09    9.573341E-11    8.641010E-13    4.880259E-15   -2.258816E-17   -2.090136E-18   -8.142604E-20   -2.603156E-21
        -7.284417E-23
  20    -4.164327E-24   -1.639354E-22   -5.707710E-21   -1.695185E-19   -4.016159E-18    9.693358E-18    1.718207E-14    2.344484E-12    2.172198E-10    1.489934E-08
         7.415470E-07    2.570814E-05    5.953096E-04    8.906231E-03    8.184628E-02    0.348985        8.184628E-02    8.906231E-03    5.953096E-04    2.570814E-05
         7.415470E-07    1.489934E-08    2.172198E-10    2.344483E-12    1.718188E-14    9.671996E-18   -4.017882E-18   -1.696120E-19   -5.711501E-21   -1.640597E-22
        -4.167872E-24
  21    -1.692663E-25   -7.486055E-24   -2.957667E-22   -1.005181E-20   -2.902336E-19   -6.185395E-18    1.174815E-16    3.730603E-14    4.158103E-12    3.222620E-10
         1.827058E-08    7.415470E-07    2.078881E-05    3.859120E-04    4.379399E-03    2.250151E-02    4.379399E-03    3.859120E-04    2.078881E-05    7.415470E-07
         1.827058E-08    3.222620E-10    4.158104E-12    3.730575E-14    1.174225E-16   -6.191286E-18   -2.905784E-19   -1.006640E-20   -2.962557E-22   -7.499774E-24
        -1.696084E-25
  22    -4.930665E-27   -2.489671E-25   -1.132519E-23   -4.458514E-22   -1.494170E-20   -4.188734E-19   -7.822356E-18    2.632310E-16    5.414032E-14    5.013118E-12
         3.222621E-10    1.489934E-08    4.833724E-07    1.048412E-05    1.379916E-04    8.095103E-04    1.379916E-04    1.048412E-05    4.833724E-07    1.489934E-08
         3.222620E-10    5.013122E-12    5.413996E-14    2.631148E-16   -7.836027E-18   -4.197429E-19   -1.498048E-20   -4.471914E-22   -1.136317E-23   -2.498882E-25
        -4.950745E-27
  23    -1.041420E-28   -6.095153E-27   -3.232612E-25   -1.491714E-23   -5.854267E-22   -1.925590E-20   -5.180324E-19   -8.594237E-18    3.337185E-16    5.414030E-14
         4.158101E-12    2.172198E-10    7.917583E-09    1.930277E-07    2.834671E-06    1.837033E-05    2.834671E-06    1.930277E-07    7.917583E-09    2.172198E-10
         4.158104E-12    5.413996E-14    3.335667E-16   -8.615476E-18   -5.195510E-19   -1.932927E-20   -5.880960E-22   -1.499482E-23   -3.251494E-25   -6.134845E-27
        -1.048965E-28
  24    -1.597148E-30   -1.103130E-28   -6.925317E-27   -3.793293E-25   -1.765923E-23   -6.844558E-22   -2.179720E-20   -5.552725E-19   -8.593351E-18    2.632404E-16
         3.730600E-14    2.344483E-12    9.573341E-11    2.567099E-09    4.106123E-08    2.877700E-07    4.106123E-08    2.567099E-09    9.573341E-11    2.344483E-12
         3.730575E-14    2.631148E-16   -8.615476E-18   -5.571427E-19   -2.189899E-20   -6.884734E-22   -1.778208E-23   -3.823760E-25   -6.988904E-27   -1.114663E-28
        -1.616110E-30
  25    -1.751550E-32   -1.465357E-30   -1.113771E-28   -7.371605E-27   -4.129635E-25   -1.912927E-23   -7.201697E-22   -2.179379E-20   -5.179170E-19   -7.820625E-18
         1.174904E-16    1.718207E-14    8.641021E-13    2.578368E-11    4.446977E-10    3.326251E-09    4.446978E-10    2.578368E-11    8.641010E-13    1.718188E-14
         1.174225E-16   -7.836027E-18   -5.195510E-19   -2.189899E-20   -7.248526E-22   -1.928451E-23   -4.169911E-25   -7.456640E-27   -1.128882E-28   -1.488696E-30
        -1.784263E-32
  26    -1.315684E-34   -1.394611E-32   -1.332796E-30   -1.096934E-28   -7.545119E-27   -4.239302E-25   -1.912507E-23   -6.842108E-22   -1.924833E-20   -4.187395E-19
        -6.184192E-18    9.697536E-18    4.880379E-15    1.922097E-13    3.709769E-12    2.967621E-11    3.709769E-12    1.922093E-13    4.880259E-15    9.671996E-18
        -6.191286E-18   -4.197429E-19   -1.932927E-20   -6.884734E-22   -1.928451E-23   -4.284084E-25   -7.643508E-27   -1.114425E-28   -1.358780E-30   -1.428016E-32
        -1.354708E-34
  27    -6.060943E-37   -8.987113E-35   -1.160472E-32   -1.247358E-30   -1.086516E-28   -7.542925E-27   -4.127631E-25   -1.764896E-23   -5.850929E-22   -1.493493E-20
        -2.901554E-19   -4.015718E-18   -2.258086E-17    6.657455E-16    2.156668E-14    2.005717E-13    2.156662E-14    6.657175E-16   -2.258816E-17   -4.017882E-18
        -2.905784E-19   -1.498048E-20   -5.880960E-22   -1.778208E-23   -4.169911E-25   -7.643508E-27   -1.105041E-28   -1.274533E-30   -1.193218E-32   -9.324837E-35
        -6.378411E-37
  28    -1.094143E-39   -3.371963E-37   -7.008176E-35   -1.077463E-32   -1.246854E-30   -1.096215E-28   -7.365761E-27   -3.790174E-25   -1.490602E-23   -4.455958E-22
        -1.004829E-20   -1.694927E-19   -2.089673E-18   -1.631364E-17   -2.192449E-17    5.363258E-16   -2.192717E-17   -1.631501E-17   -2.090136E-18   -1.696120E-19
        -1.006640E-20   -4.471914E-22   -1.499482E-23   -3.823760E-25   -7.456640E-27   -1.114425E-28   -1.274533E-30   -1.110014E-32   -7.312094E-35   -3.608443E-37
        -1.262789E-39
  29     3.587622E-42   -2.849103E-40   -2.599520E-37   -7.003416E-35   -1.159345E-32   -1.331311E-30   -1.112490E-28   -6.917805E-27   -3.229628E-25   -1.131743E-23
        -2.956432E-22   -5.706622E-21   -8.140322E-20   -8.576394E-19   -5.708468E-18   -1.989706E-17   -5.708592E-18   -8.577118E-19   -8.142604E-20   -5.711501E-21
        -2.962557E-22   -1.136317E-23   -3.251494E-25   -6.988904E-27   -1.128882E-28   -1.358780E-30   -1.193218E-32   -7.312094E-35   -2.808781E-37   -3.951334E-40
         3.056046E-42
  30     1.948366E-44    3.391498E-42   -2.833743E-40   -3.364979E-37   -8.970813E-35   -1.392240E-32   -1.463059E-30   -1.101613E-28   -6.088375E-27   -2.487684E-25
        -7.482453E-24   -1.638987E-22   -2.602281E-21   -3.019855E-20   -2.295675E-19   -1.066432E-18   -2.295729E-19   -3.020159E-20   -2.603156E-21   -1.640597E-22
        -7.499774E-24   -2.498882E-25   -6.134845E-27   -1.114663E-28   -1.488696E-30   -1.428016E-32   -9.324837E-35   -3.608443E-37   -3.951334E-40    3.062240E-42
         1.868997E-44
  31      0.00000        1.949647E-44    3.602593E-42   -1.086931E-39   -6.041577E-37   -1.312428E-34   -1.747931E-32   -1.594431E-30   -1.040047E-28   -4.926130E-27
        -1.691735E-25   -4.163252E-24   -7.281575E-23   -9.167907E-22   -7.808343E-21   -4.340230E-20   -7.808540E-21   -9.168977E-22   -7.284417E-23   -4.167872E-24
        -1.696084E-25   -4.950745E-27   -1.048965E-28   -1.616110E-30   -1.784263E-32   -1.354708E-34   -6.378411E-37   -1.262789E-39    3.056046E-42    1.868997E-44
          0.00000    

 CONCENTRATION WILL BE SAVED ON UNIT 1030 AT END OF TIME STEP   54, STRESS PERIOD    2


  MASS BUDGET FOR ENTIRE MODEL AT END OF TIME STEP   54, STRESS PERIOD   2
  ---------------------------------------------------------------------------------------------------

     CUMULATIVE MASS      M       RATES FOR THIS TIME STEP      M/T          PACKAGE NAME    
     ------------------                 ------------------------                     ----------------

           IN:                                      IN:
           ---                                      ---
     STORAGE-AQUEOUS =  6682229482.9182       STORAGE-AQUEOUS =     1716280.6713     MST                              
                 WEL =  7884000000.0000                   WEL =           0.0000     SSM_WEL-1                        
                 CHD =           0.0000                   CHD =           0.0000     SSM_CHD-1                        

            TOTAL IN = 14566229482.9183              TOTAL IN =     1716280.6713

          OUT:                                     OUT:
          ----                                     ----
     STORAGE-AQUEOUS =  7888700927.6875       STORAGE-AQUEOUS =          66.0419     MST                              
                 WEL =  6677528555.2309                   WEL =     1716214.6294     SSM_WEL-1                        
                 CHD =       7.5562E-18                   CHD =           0.0000     SSM_CHD-1                        

           TOTAL OUT = 14566229482.9184             TOTAL OUT =     1716280.6713

            IN - OUT =      -9.5367E-05              IN - OUT =      -4.7963E-08

 PERCENT DISCREPANCY =          -0.00     PERCENT DISCREPANCY =          -0.00




         TIME SUMMARY AT END OF TIME STEP   54 IN STRESS PERIOD    2
                    SECONDS     MINUTES      HOURS       DAYS        YEARS
                    -----------------------------------------------------------
   TIME STEP LENGTH 2.16991E+06  36165.      602.75      25.115     6.87602E-02
 STRESS PERIOD TIME 1.17175E+08 1.95292E+06  32549.      1356.2      3.7131    
         TOTAL TIME 1.96015E+08 3.26692E+06  54449.      2268.7      6.2113    


end timestep


start timestep kper="2" kstp="55" mode="normal"

 UBDSV1 SAVING  STORAGE-AQUEOUS ON UNIT   1029 AT TIME STEP     55, STRESS PERIOD      2
 UBDSV1 SAVING     FLOW-JA-FACE ON UNIT   1029 AT TIME STEP     55, STRESS PERIOD      2
 UBDSV06 SAVING  SOURCE-SINK MIX IN MODEL GWT_P06-MF6      PACKAGE GWT_P06-MF6     CONNECTED TO MODEL GWT_P06-MF6      PACKAGE SSM              ON UNIT   1029 AT TIME STEP     55, STRESS PERIOD      2
1
  CONCENTRATION IN LAYER   1 AT END OF TIME STEP  55 IN STRESS PERIOD    2
  ---------------------------------------------------------------------------

                1               2               3               4               5               6               7               8               9              10
               11              12              13              14              15              16              17              18              19              20
               21              22              23              24              25              26              27              28              29              30
               31
 ................................................................................................................................................................................................................................................................................................................................................................................................................................................................................................................
   1      0.00000        1.905208E-44    2.820939E-42   -1.444166E-39   -6.898817E-37   -1.442020E-34   -1.881425E-32   -1.691781E-30   -1.091190E-28   -5.120639E-27
        -1.745178E-25   -4.269253E-24   -7.435021E-23   -9.327914E-22   -7.916095E-21   -4.373793E-20   -7.915917E-21   -9.327019E-22   -7.432782E-23   -4.265653E-24
        -1.741691E-25   -5.100084E-27   -1.083429E-28   -1.672183E-30   -1.847443E-32   -1.401269E-34   -6.565481E-37   -1.266027E-39    3.386508E-42    1.990527E-44
          0.00000    
   2     1.905208E-44    2.971695E-42   -4.864905E-40   -3.916994E-37   -9.924996E-35   -1.505060E-32   -1.558008E-30   -1.159650E-28   -6.348026E-27   -2.572675E-25
        -7.685242E-24   -1.674327E-22   -2.647868E-21   -3.061607E-20   -2.318810E-19   -1.070320E-18   -2.318762E-19   -3.061352E-20   -2.647176E-21   -1.673069E-22
        -7.671303E-24   -2.563279E-25   -6.307362E-27   -1.147782E-28   -1.533883E-30   -1.470374E-32   -9.572717E-35   -3.669129E-37   -3.703114E-40    3.321427E-42
         1.991918E-44
   3     2.820939E-42   -4.864905E-40   -3.055848E-37   -7.782469E-35   -1.256915E-32   -1.421351E-30   -1.174148E-28   -7.231939E-27   -3.348398E-25   -1.164872E-23
        -3.024317E-22   -5.809151E-21   -8.251841E-20   -8.639254E-19   -5.680358E-18   -1.933795E-17   -5.680246E-18   -8.638644E-19   -8.250028E-20   -5.805325E-21
        -3.019366E-22   -1.161010E-23   -3.329125E-25   -7.166758E-27   -1.158594E-28   -1.394495E-30   -1.222932E-32   -7.465720E-35   -2.836680E-37   -3.686789E-40
         3.402587E-42
   4    -1.444166E-39   -3.916994E-37   -7.782469E-35   -1.168983E-32   -1.332706E-30   -1.158717E-28   -7.714482E-27   -3.937734E-25   -1.537460E-23   -4.566605E-22
        -1.024066E-20   -1.717643E-19   -2.093916E-18   -1.567993E-17   -5.872189E-18    6.699204E-16   -5.869801E-18   -1.567876E-17   -2.093544E-18   -1.716703E-19
        -1.022594E-20   -4.553033E-22   -1.529560E-23   -3.906620E-25   -7.627292E-27   -1.140712E-28   -1.304625E-30   -1.135210E-32   -7.460733E-35   -3.661762E-37
        -1.258351E-39
   5    -6.898817E-37   -9.924996E-35   -1.256915E-32   -1.332706E-30   -1.148785E-28   -7.906471E-27   -4.293802E-25   -1.823323E-23   -6.006674E-22   -1.524234E-20
        -2.939021E-19   -3.979869E-18   -1.831701E-17    8.110309E-16    2.411691E-14    2.194346E-13    2.411696E-14    8.110551E-16   -1.831090E-17   -3.978143E-18
        -2.935556E-19   -1.520321E-20   -5.979627E-22   -1.810824E-23   -4.252659E-25   -7.805576E-27   -1.129716E-28   -1.304103E-30   -1.221758E-32   -9.555631E-35
        -6.545027E-37
   6    -1.442020E-34   -1.505060E-32   -1.421351E-30   -1.158717E-28   -7.906471E-27   -4.411149E-25   -1.977353E-23   -7.032456E-22   -1.966735E-20   -4.238259E-19
        -6.027514E-18    2.549820E-17    5.586281E-15    2.116466E-13    4.020221E-12    3.181307E-11    4.020221E-12    2.116470E-13    5.586386E-15    2.551944E-17
        -6.021625E-18   -4.229526E-19   -1.959331E-20   -6.991737E-22   -1.961556E-23   -4.365399E-25   -7.803322E-27   -1.139970E-28   -1.392956E-30   -1.467903E-32
        -1.397855E-34
   7    -1.881425E-32   -1.558008E-30   -1.174148E-28   -7.714482E-27   -4.293802E-25   -1.977353E-23   -7.404178E-22   -2.228093E-20   -5.238082E-19   -7.473349E-18
         1.549875E-16    1.931498E-14    9.450730E-13    2.779956E-11    4.742830E-10    3.513264E-09    4.742830E-10    2.779956E-11    9.450740E-13    1.931516E-14
         1.550459E-16   -7.459694E-18   -5.222829E-19   -2.217820E-20   -7.356710E-22   -1.961127E-23   -4.250609E-25   -7.621289E-27   -1.157273E-28   -1.531501E-30
        -1.843671E-32
   8    -1.691781E-30   -1.159650E-28   -7.231939E-27   -3.937734E-25   -1.823323E-23   -7.032456E-22   -2.228093E-20   -5.613652E-19   -8.091334E-18    3.250275E-16
         4.161767E-14    2.554417E-12    1.028455E-10    2.725954E-09    4.314908E-08    2.995015E-07    4.314908E-08    2.725954E-09    1.028455E-10    2.554417E-12
         4.161795E-14    3.251422E-16   -8.070126E-18   -5.594867E-19   -2.217476E-20   -6.989253E-22   -1.809778E-23   -3.903430E-25   -7.159046E-27   -1.146219E-28
        -1.669368E-30
   9    -1.091190E-28   -6.348026E-27   -3.348398E-25   -1.537460E-23   -6.006674E-22   -1.966735E-20   -5.238082E-19   -8.091334E-18    4.064809E-16    6.021327E-14
         4.520971E-12    2.327762E-10    8.378345E-09    2.019053E-07    2.934036E-06    1.883255E-05    2.934036E-06    2.019053E-07    8.378345E-09    2.327762E-10
         4.520970E-12    6.021362E-14    4.066306E-16   -8.069242E-18   -5.221670E-19   -1.958567E-20   -5.976243E-22   -1.528428E-23   -3.326075E-25   -6.300410E-27
        -1.082016E-28
  10    -5.120639E-27   -2.572675E-25   -1.164872E-23   -4.566605E-22   -1.524234E-20   -4.238259E-19   -7.473349E-18    3.250275E-16    6.021327E-14    5.446941E-12
         3.448964E-10    1.573047E-08    5.037936E-07    1.079780E-05    1.406290E-04    8.172401E-04    1.406290E-04    1.079780E-05    5.037936E-07    1.573047E-08
         3.448964E-10    5.446937E-12    6.021360E-14    3.251515E-16   -7.457967E-18   -4.228181E-19   -1.519639E-20   -4.550444E-22   -1.160221E-23   -2.561251E-25
        -5.095437E-27
  11    -1.745178E-25   -7.685242E-24   -3.024317E-22   -1.024066E-20   -2.939021E-19   -6.027514E-18    1.549875E-16    4.161767E-14    4.520971E-12    3.448964E-10
         1.927444E-08    7.713420E-07    2.133451E-05    3.912344E-04    4.393708E-03    2.237292E-02    4.393708E-03    3.912344E-04    2.133451E-05    7.713420E-07
         1.927444E-08    3.448964E-10    4.520969E-12    4.161791E-14    1.550546E-16   -6.020424E-18   -2.934772E-19   -1.022239E-20   -3.018116E-22   -7.667645E-24
        -1.740745E-25
  12    -4.269253E-24   -1.674327E-22   -5.809151E-21   -1.717643E-19   -3.979869E-18    2.549820E-17    1.931498E-14    2.554417E-12    2.327762E-10    1.573047E-08
         7.713420E-07    2.634837E-05    6.015858E-04    8.888724E-03    8.087353E-02    0.342092        8.087353E-02    8.888724E-03    6.015858E-04    2.634837E-05
         7.713420E-07    1.573047E-08    2.327762E-10    2.554416E-12    1.931517E-14    2.552356E-17   -3.977703E-18   -1.716444E-19   -5.804229E-21   -1.672697E-22
        -4.264562E-24
  13    -7.435021E-23   -2.647868E-21   -8.251841E-20   -2.093916E-18   -1.831701E-17    5.586281E-15    9.450730E-13    1.028455E-10    8.378345E-09    5.037936E-07
         2.133451E-05    6.015858E-04    1.070933E-02    0.116797        0.780867         2.52443        0.780867        0.116797        1.070933E-02    6.015858E-04
         2.133451E-05    5.037936E-07    8.378345E-09    1.028455E-10    9.450741E-13    5.586400E-15   -1.830967E-17   -2.093451E-18   -8.249545E-20   -2.646985E-21
        -7.432143E-23
  14    -9.327914E-22   -3.061607E-20   -8.639254E-19   -1.567993E-17    8.110309E-16    2.116466E-13    2.779956E-11    2.725954E-09    2.019053E-07    1.079780E-05
         3.912344E-04    8.888724E-03    0.116797        0.852638         3.70178         8.35434         3.70178        0.852638        0.116797        8.888724E-03
         3.912344E-04    1.079780E-05    2.019053E-07    2.725954E-09    2.779956E-11    2.116471E-13    8.110588E-16   -1.567856E-17   -8.638526E-19   -3.061301E-20
        -9.326833E-22
  15    -7.916095E-21   -2.318810E-19   -5.680358E-18   -5.872189E-18    2.411691E-14    4.020221E-12    4.742830E-10    4.314908E-08    2.934036E-06    1.406290E-04
         4.393708E-03    8.087353E-02    0.780867         3.70178         10.4749         14.6086         10.4749         3.70178        0.780867        8.087353E-02
         4.393708E-03    1.406290E-04    2.934036E-06    4.314908E-08    4.742830E-10    4.020221E-12    2.411697E-14   -5.869483E-18   -5.680232E-18   -2.318756E-19
        -7.915896E-21
  16    -4.373793E-20   -1.070320E-18   -1.933795E-17    6.699204E-16    2.194346E-13    3.181307E-11    3.513264E-09    2.995015E-07    1.883255E-05    8.172401E-04
         2.237292E-02    0.342092         2.52443         8.35434         14.6086         19.1360         14.6086         8.35434         2.52443        0.342092    
         2.237292E-02    8.172401E-04    1.883255E-05    2.995015E-07    3.513264E-09    3.181307E-11    2.194346E-13    6.699204E-16   -1.933795E-17   -1.070320E-18
        -4.373793E-20
  17    -7.915917E-21   -2.318762E-19   -5.680246E-18   -5.869801E-18    2.411696E-14    4.020221E-12    4.742830E-10    4.314908E-08    2.934036E-06    1.406290E-04
         4.393708E-03    8.087353E-02    0.780867         3.70178         10.4749         14.6086         10.4749         3.70178        0.780867        8.087353E-02
         4.393708E-03    1.406290E-04    2.934036E-06    4.314908E-08    4.742830E-10    4.020221E-12    2.411691E-14   -5.872186E-18   -5.680358E-18   -2.318810E-19
        -7.916095E-21
  18    -9.327019E-22   -3.061352E-20   -8.638644E-19   -1.567876E-17    8.110551E-16    2.116470E-13    2.779956E-11    2.725954E-09    2.019053E-07    1.079780E-05
         3.912344E-04    8.888724E-03    0.116797        0.852638         3.70178         8.35434         3.70178        0.852638        0.116797        8.888724E-03
         3.912344E-04    1.079780E-05    2.019053E-07    2.725954E-09    2.779956E-11    2.116466E-13    8.110309E-16   -1.567993E-17   -8.639254E-19   -3.061607E-20
        -9.327914E-22
  19    -7.432782E-23   -2.647176E-21   -8.250028E-20   -2.093544E-18   -1.831090E-17    5.586386E-15    9.450740E-13    1.028455E-10    8.378345E-09    5.037936E-07
         2.133451E-05    6.015858E-04    1.070933E-02    0.116797        0.780867         2.52443        0.780867        0.116797        1.070933E-02    6.015858E-04
         2.133451E-05    5.037936E-07    8.378345E-09    1.028455E-10    9.450730E-13    5.586281E-15   -1.831700E-17   -2.093916E-18   -8.251841E-20   -2.647868E-21
        -7.435021E-23
  20    -4.265653E-24   -1.673069E-22   -5.805325E-21   -1.716703E-19   -3.978143E-18    2.551944E-17    1.931516E-14    2.554417E-12    2.327762E-10    1.573047E-08
         7.713420E-07    2.634837E-05    6.015858E-04    8.888724E-03    8.087353E-02    0.342092        8.087353E-02    8.888724E-03    6.015858E-04    2.634837E-05
         7.713420E-07    1.573047E-08    2.327762E-10    2.554417E-12    1.931498E-14    2.549820E-17   -3.979869E-18   -1.717643E-19   -5.809151E-21   -1.674327E-22
        -4.269253E-24
  21    -1.741691E-25   -7.671303E-24   -3.019366E-22   -1.022594E-20   -2.935556E-19   -6.021625E-18    1.550459E-16    4.161795E-14    4.520970E-12    3.448964E-10
         1.927444E-08    7.713420E-07    2.133451E-05    3.912344E-04    4.393708E-03    2.237292E-02    4.393708E-03    3.912344E-04    2.133451E-05    7.713420E-07
         1.927444E-08    3.448964E-10    4.520971E-12    4.161767E-14    1.549875E-16   -6.027514E-18   -2.939021E-19   -1.024066E-20   -3.024317E-22   -7.685242E-24
        -1.745178E-25
  22    -5.100084E-27   -2.563279E-25   -1.161010E-23   -4.553033E-22   -1.520321E-20   -4.229526E-19   -7.459694E-18    3.251422E-16    6.021362E-14    5.446937E-12
         3.448964E-10    1.573047E-08    5.037936E-07    1.079780E-05    1.406290E-04    8.172401E-04    1.406290E-04    1.079780E-05    5.037936E-07    1.573047E-08
         3.448964E-10    5.446941E-12    6.021326E-14    3.250275E-16   -7.473349E-18   -4.238259E-19   -1.524234E-20   -4.566605E-22   -1.164872E-23   -2.572675E-25
        -5.120639E-27
  23    -1.083429E-28   -6.307362E-27   -3.329125E-25   -1.529560E-23   -5.979627E-22   -1.959331E-20   -5.222829E-19   -8.070126E-18    4.066306E-16    6.021360E-14
         4.520969E-12    2.327762E-10    8.378345E-09    2.019053E-07    2.934036E-06    1.883255E-05    2.934036E-06    2.019053E-07    8.378345E-09    2.327762E-10
         4.520971E-12    6.021326E-14    4.064809E-16   -8.091334E-18   -5.238082E-19   -1.966735E-20   -6.006674E-22   -1.537460E-23   -3.348398E-25   -6.348026E-27
        -1.091190E-28
  24    -1.672183E-30   -1.147782E-28   -7.166758E-27   -3.906620E-25   -1.810824E-23   -6.991737E-22   -2.217820E-20   -5.594867E-19   -8.069242E-18    3.251515E-16
         4.161791E-14    2.554416E-12    1.028455E-10    2.725954E-09    4.314908E-08    2.995015E-07    4.314908E-08    2.725954E-09    1.028455E-10    2.554417E-12
         4.161767E-14    3.250275E-16   -8.091334E-18   -5.613652E-19   -2.228093E-20   -7.032456E-22   -1.823323E-23   -3.937734E-25   -7.231939E-27   -1.159650E-28
        -1.691781E-30
  25    -1.847443E-32   -1.533883E-30   -1.158594E-28   -7.627292E-27   -4.252659E-25   -1.961556E-23   -7.356710E-22   -2.217476E-20   -5.221670E-19   -7.457967E-18
         1.550546E-16    1.931517E-14    9.450741E-13    2.779956E-11    4.742830E-10    3.513264E-09    4.742830E-10    2.779956E-11    9.450730E-13    1.931498E-14
         1.549875E-16   -7.473349E-18   -5.238082E-19   -2.228093E-20   -7.404178E-22   -1.977353E-23   -4.293802E-25   -7.714482E-27   -1.174148E-28   -1.558008E-30
        -1.881425E-32
  26    -1.401269E-34   -1.470374E-32   -1.394495E-30   -1.140712E-28   -7.805576E-27   -4.365399E-25   -1.961127E-23   -6.989253E-22   -1.958567E-20   -4.228181E-19
        -6.020424E-18    2.552356E-17    5.586400E-15    2.116471E-13    4.020221E-12    3.181307E-11    4.020221E-12    2.116466E-13    5.586281E-15    2.549820E-17
        -6.027514E-18   -4.238259E-19   -1.966735E-20   -7.032456E-22   -1.977353E-23   -4.411149E-25   -7.906471E-27   -1.158717E-28   -1.421351E-30   -1.505060E-32
        -1.442020E-34
  27    -6.565481E-37   -9.572717E-35   -1.222932E-32   -1.304625E-30   -1.129716E-28   -7.803322E-27   -4.250609E-25   -1.809778E-23   -5.976243E-22   -1.519639E-20
        -2.934772E-19   -3.977703E-18   -1.830967E-17    8.110588E-16    2.411697E-14    2.194346E-13    2.411691E-14    8.110309E-16   -1.831700E-17   -3.979869E-18
        -2.939021E-19   -1.524234E-20   -6.006674E-22   -1.823323E-23   -4.293802E-25   -7.906471E-27   -1.148785E-28   -1.332706E-30   -1.256915E-32   -9.924996E-35
        -6.898817E-37
  28    -1.266027E-39   -3.669129E-37   -7.465720E-35   -1.135210E-32   -1.304103E-30   -1.139970E-28   -7.621289E-27   -3.903430E-25   -1.528428E-23   -4.550444E-22
        -1.022239E-20   -1.716444E-19   -2.093451E-18   -1.567856E-17   -5.869483E-18    6.699204E-16   -5.872186E-18   -1.567993E-17   -2.093916E-18   -1.717643E-19
        -1.024066E-20   -4.566605E-22   -1.537460E-23   -3.937734E-25   -7.714482E-27   -1.158717E-28   -1.332706E-30   -1.168983E-32   -7.782469E-35   -3.916994E-37
        -1.444166E-39
  29     3.386508E-42   -3.703114E-40   -2.836680E-37   -7.460733E-35   -1.221758E-32   -1.392956E-30   -1.157273E-28   -7.159046E-27   -3.326075E-25   -1.160221E-23
        -3.018116E-22   -5.804229E-21   -8.249545E-20   -8.638526E-19   -5.680232E-18   -1.933795E-17   -5.680358E-18   -8.639254E-19   -8.251841E-20   -5.809151E-21
        -3.024317E-22   -1.164872E-23   -3.348398E-25   -7.231939E-27   -1.174148E-28   -1.421351E-30   -1.256915E-32   -7.782469E-35   -3.055848E-37   -4.864905E-40
         2.820939E-42
  30     1.990527E-44    3.321427E-42   -3.686789E-40   -3.661762E-37   -9.555631E-35   -1.467903E-32   -1.531501E-30   -1.146219E-28   -6.300410E-27   -2.561251E-25
        -7.667645E-24   -1.672697E-22   -2.646985E-21   -3.061301E-20   -2.318756E-19   -1.070320E-18   -2.318810E-19   -3.061607E-20   -2.647868E-21   -1.674327E-22
        -7.685242E-24   -2.572675E-25   -6.348026E-27   -1.159650E-28   -1.558008E-30   -1.505060E-32   -9.924996E-35   -3.916994E-37   -4.864905E-40    2.971696E-42
         1.905208E-44
  31      0.00000        1.991918E-44    3.402587E-42   -1.258351E-39   -6.545027E-37   -1.397855E-34   -1.843671E-32   -1.669368E-30   -1.082016E-28   -5.095437E-27
        -1.740745E-25   -4.264562E-24   -7.432143E-23   -9.326833E-22   -7.915896E-21   -4.373793E-20   -7.916095E-21   -9.327914E-22   -7.435021E-23   -4.269253E-24
        -1.745178E-25   -5.120639E-27   -1.091190E-28   -1.691781E-30   -1.881425E-32   -1.442020E-34   -6.898817E-37   -1.444166E-39    2.820939E-42    1.905208E-44
          0.00000    

 CONCENTRATION WILL BE SAVED ON UNIT 1030 AT END OF TIME STEP   55, STRESS PERIOD    2


  MASS BUDGET FOR ENTIRE MODEL AT END OF TIME STEP   55, STRESS PERIOD   2
  ---------------------------------------------------------------------------------------------------

     CUMULATIVE MASS      M       RATES FOR THIS TIME STEP      M/T          PACKAGE NAME    
     ------------------                 ------------------------                     ----------------

           IN:                                      IN:
           ---                                      ---
     STORAGE-AQUEOUS =  6723754472.5689       STORAGE-AQUEOUS =     1653415.1130     MST                              
                 WEL =  7884000000.0000                   WEL =           0.0000     SSM_WEL-1                        
                 CHD =           0.0000                   CHD =           0.0000     SSM_CHD-1                        

            TOTAL IN = 14607754472.5689              TOTAL IN =     1653415.1130

          OUT:                                     OUT:
          ----                                     ----
     STORAGE-AQUEOUS =  7888702469.4609       STORAGE-AQUEOUS =          61.3893     MST                              
                 WEL =  6719052003.1082                   WEL =     1653353.7237     SSM_WEL-1                        
                 CHD =       7.5562E-18                   CHD =           0.0000     SSM_CHD-1                        

           TOTAL OUT = 14607754472.5690             TOTAL OUT =     1653415.1130

            IN - OUT =      -9.7275E-05              IN - OUT =      -4.5868E-08

 PERCENT DISCREPANCY =          -0.00     PERCENT DISCREPANCY =          -0.00




         TIME SUMMARY AT END OF TIME STEP   55 IN STRESS PERIOD    2
                    SECONDS     MINUTES      HOURS       DAYS        YEARS
                    -----------------------------------------------------------
   TIME STEP LENGTH 2.16991E+06  36165.      602.75      25.115     6.87602E-02
 STRESS PERIOD TIME 1.19345E+08 1.98908E+06  33151.      1381.3      3.7818    
         TOTAL TIME 1.98185E+08 3.30308E+06  55051.      2293.8      6.2801    


end timestep


start timestep kper="2" kstp="56" mode="normal"

 UBDSV1 SAVING  STORAGE-AQUEOUS ON UNIT   1029 AT TIME STEP     56, STRESS PERIOD      2
 UBDSV1 SAVING     FLOW-JA-FACE ON UNIT   1029 AT TIME STEP     56, STRESS PERIOD      2
 UBDSV06 SAVING  SOURCE-SINK MIX IN MODEL GWT_P06-MF6      PACKAGE GWT_P06-MF6     CONNECTED TO MODEL GWT_P06-MF6      PACKAGE SSM              ON UNIT   1029 AT TIME STEP     56, STRESS PERIOD      2
1
  CONCENTRATION IN LAYER   1 AT END OF TIME STEP  56 IN STRESS PERIOD    2
  ---------------------------------------------------------------------------

                1               2               3               4               5               6               7               8               9              10
               11              12              13              14              15              16              17              18              19              20
               21              22              23              24              25              26              27              28              29              30
               31
 ................................................................................................................................................................................................................................................................................................................................................................................................................................................................................................................
   1      0.00000        1.938892E-44    2.551138E-42   -1.640162E-39   -7.452107E-37   -1.533985E-34   -1.983040E-32   -1.770435E-30   -1.134835E-28   -5.295346E-27
        -1.795429E-25   -4.372614E-24   -7.588036E-23   -9.488783E-22   -8.024435E-21   -4.407338E-20   -8.024255E-21   -9.487878E-22   -7.585768E-23   -4.368957E-24
        -1.791875E-25   -5.274305E-27   -1.126855E-28   -1.750184E-30   -1.947747E-32   -1.491443E-34   -7.102220E-37   -1.452067E-39    3.152566E-42    2.030534E-44
          0.00000    
   2     1.938892E-44    2.863599E-42   -5.854769E-40   -4.244985E-37   -1.055680E-34   -1.585606E-32   -1.630049E-30   -1.206161E-28   -6.567325E-27   -2.648231E-25
        -7.874343E-24   -1.708591E-22   -2.693103E-21   -3.103216E-20   -2.341509E-19   -1.073797E-18   -2.341461E-19   -3.102959E-20   -2.692405E-21   -1.707318E-22
        -7.860182E-24   -2.638647E-25   -6.525669E-27   -1.193950E-28   -1.605116E-30   -1.549597E-32   -1.018943E-34   -3.985254E-37   -4.630601E-40    3.234902E-42
         2.032042E-44
   3     2.551138E-42   -5.854769E-40   -3.318465E-37   -8.277444E-35   -1.323480E-32   -1.486367E-30   -1.220943E-28   -7.481984E-27   -3.447646E-25   -1.193993E-23
        -3.087058E-22   -5.907842E-21   -8.360613E-20   -8.696257E-19   -5.641123E-18   -1.869370E-17   -5.641011E-18   -8.695644E-19   -8.358789E-20   -5.903982E-21
        -3.082046E-22   -1.190068E-23   -3.427974E-25   -7.415178E-27   -1.204935E-28   -1.458616E-30   -1.288220E-32   -7.947387E-35   -3.088974E-37   -4.613259E-40
         3.169823E-42
   4    -1.640162E-39   -4.244985E-37   -8.277444E-35   -1.230595E-32   -1.393140E-30   -1.204498E-28   -7.979756E-27   -4.054479E-25   -1.576203E-23   -4.662807E-22
        -1.041644E-20   -1.738709E-19   -2.094318E-18   -1.493973E-17    1.180474E-17    8.146474E-16    1.180713E-17   -1.493855E-17   -2.093945E-18   -1.737764E-19
        -1.040159E-20   -4.649061E-22   -1.568168E-23   -4.022707E-25   -7.890367E-27   -1.185968E-28   -1.364127E-30   -1.195560E-32   -7.942164E-35   -3.977485E-37
        -1.443901E-39
   5    -7.452107E-37   -1.055680E-34   -1.323480E-32   -1.393140E-30   -1.193997E-28   -8.177000E-27   -4.420709E-25   -1.869353E-23   -6.134387E-22   -1.550580E-20
        -2.970580E-19   -3.928659E-18   -1.349255E-17    9.697302E-16    2.686652E-14    2.395639E-13    2.686658E-14    9.697543E-16   -1.348641E-17   -3.926930E-18
        -2.967100E-19   -1.546633E-20   -6.106985E-22   -1.856637E-23   -4.378685E-25   -8.073547E-27   -1.174370E-28   -1.363586E-30   -1.286996E-32   -1.017152E-34
        -7.080626E-37
   6    -1.533985E-34   -1.585606E-32   -1.486367E-30   -1.204498E-28   -8.177000E-27   -4.541308E-25   -2.027249E-23   -7.182512E-22   -2.000659E-20   -4.275248E-19
        -5.829445E-18    4.304928E-17    6.353823E-15    2.325141E-13    4.349975E-12    3.406005E-11    4.349976E-12    2.325144E-13    6.353927E-15    4.307038E-17
        -5.823557E-18   -4.266477E-19   -1.993187E-20   -7.141246E-22   -2.011174E-23   -4.494572E-25   -8.071232E-27   -1.185202E-28   -1.457020E-30   -1.547022E-32
        -1.487862E-34
   7    -1.983040E-32   -1.630049E-30   -1.220943E-28   -7.979756E-27   -4.420709E-25   -2.027249E-23   -7.562280E-22   -2.266352E-20   -5.274515E-19   -7.047512E-18
         1.964464E-16    2.162681E-14    1.031700E-12    2.993130E-11    5.052269E-10    3.706829E-09    5.052269E-10    2.993130E-11    1.031701E-12    2.162699E-14
         1.965042E-16   -7.033874E-18   -5.259196E-19   -2.255985E-20   -7.514170E-22   -2.010738E-23   -4.376588E-25   -7.884201E-27   -1.203573E-28   -1.602647E-30
        -1.943818E-32
   8    -1.770435E-30   -1.206161E-28   -7.481984E-27   -4.054479E-25   -1.869353E-23   -7.182512E-22   -2.266352E-20   -5.648727E-19   -7.482073E-18    3.931885E-16
         4.628136E-14    2.778412E-12    1.103379E-10    2.891263E-09    4.529670E-08    3.114344E-07    4.529670E-08    2.891263E-09    1.103379E-10    2.778412E-12
         4.628163E-14    3.933018E-16   -7.460898E-18   -5.629861E-19   -2.255637E-20   -7.138727E-22   -1.855572E-23   -4.019446E-25   -7.407262E-27   -1.192338E-28
        -1.747269E-30
   9    -1.134835E-28   -6.567325E-27   -3.447646E-25   -1.576203E-23   -6.134387E-22   -2.000659E-20   -5.274515E-19   -7.482073E-18    4.866920E-16    6.677533E-14
         4.907482E-12    2.491179E-10    8.855769E-09    2.109823E-07    3.034337E-06    1.929294E-05    3.034337E-06    2.109823E-07    8.855769E-09    2.491180E-10
         4.907481E-12    6.677567E-14    4.868398E-16   -7.460017E-18   -5.258032E-19   -1.992417E-20   -6.103555E-22   -1.567017E-23   -3.424859E-25   -6.518539E-27
        -1.125399E-28
  10    -5.295346E-27   -2.648231E-25   -1.193993E-23   -4.662807E-22   -1.550580E-20   -4.275248E-19   -7.047512E-18    3.931885E-16    6.677533E-14    5.908755E-12
         3.686374E-10    1.658912E-08    5.245686E-07    1.111194E-05    1.432248E-04    8.246355E-04    1.432248E-04    1.111194E-05    5.245686E-07    1.658912E-08
         3.686375E-10    5.908752E-12    6.677566E-14    3.933109E-16   -7.032152E-18   -4.265127E-19   -1.545944E-20   -4.646438E-22   -1.189266E-23   -2.636577E-25
        -5.269546E-27
  11    -1.795429E-25   -7.874343E-24   -3.087058E-22   -1.041644E-20   -2.970580E-19   -5.829445E-18    1.964464E-16    4.628136E-14    4.907482E-12    3.686374E-10
         2.031044E-08    8.015630E-07    2.187742E-05    3.963913E-04    4.406147E-03    2.223870E-02    4.406147E-03    3.963913E-04    2.187742E-05    8.015630E-07
         2.031044E-08    3.686375E-10    4.907480E-12    4.628160E-14    1.965128E-16   -5.822359E-18   -2.966312E-19   -1.039802E-20   -3.080780E-22   -7.856466E-24
        -1.790911E-25
  12    -4.372614E-24   -1.708591E-22   -5.907842E-21   -1.738709E-19   -3.928659E-18    4.304928E-17    2.162681E-14    2.778412E-12    2.491179E-10    1.658912E-08
         8.015630E-07    2.698358E-05    6.075738E-04    8.867785E-03    7.989467E-02    0.335307        7.989467E-02    8.867785E-03    6.075738E-04    2.698358E-05
         8.015630E-07    1.658912E-08    2.491180E-10    2.778411E-12    2.162699E-14    4.307446E-17   -3.926491E-18   -1.737504E-19   -5.902877E-21   -1.706942E-22
        -4.367850E-24
  13    -7.588036E-23   -2.693103E-21   -8.360613E-20   -2.094318E-18   -1.349255E-17    6.353823E-15    1.031700E-12    1.103379E-10    8.855769E-09    5.245686E-07
         2.187742E-05    6.075738E-04    1.066146E-02    0.114869        0.761429         2.44761        0.761429        0.114869        1.066146E-02    6.075738E-04
         2.187742E-05    5.245686E-07    8.855769E-09    1.103379E-10    1.031701E-12    6.353941E-15   -1.348518E-17   -2.093852E-18   -8.358303E-20   -2.692212E-21
        -7.585121E-23
  14    -9.488783E-22   -3.103216E-20   -8.696257E-19   -1.493973E-17    9.697302E-16    2.325141E-13    2.993130E-11    2.891263E-09    2.109823E-07    1.111194E-05
         3.963913E-04    8.867785E-03    0.114869        0.829370         3.57971         8.05962         3.57971        0.829370        0.114869        8.867785E-03
         3.963913E-04    1.111194E-05    2.109823E-07    2.891263E-09    2.993130E-11    2.325145E-13    9.697580E-16   -1.493834E-17   -8.695525E-19   -3.102907E-20
        -9.487690E-22
  15    -8.024435E-21   -2.341509E-19   -5.641123E-18    1.180474E-17    2.686652E-14    4.349975E-12    5.052269E-10    4.529670E-08    3.034337E-06    1.432248E-04
         4.406147E-03    7.989467E-02    0.761429         3.57971         10.1057         14.0795         10.1057         3.57971        0.761429        7.989467E-02
         4.406147E-03    1.432248E-04    3.034337E-06    4.529670E-08    5.052269E-10    4.349976E-12    2.686658E-14    1.180744E-17   -5.640997E-18   -2.341455E-19
        -8.024234E-21
  16    -4.407338E-20   -1.073797E-18   -1.869370E-17    8.146474E-16    2.395639E-13    3.406005E-11    3.706829E-09    3.114344E-07    1.929294E-05    8.246355E-04
         2.223870E-02    0.335307         2.44761         8.05962         14.0795         18.4361         14.0795         8.05962         2.44761        0.335307    
         2.223870E-02    8.246355E-04    1.929294E-05    3.114344E-07    3.706829E-09    3.406005E-11    2.395639E-13    8.146474E-16   -1.869370E-17   -1.073797E-18
        -4.407338E-20
  17    -8.024255E-21   -2.341461E-19   -5.641011E-18    1.180713E-17    2.686658E-14    4.349976E-12    5.052269E-10    4.529670E-08    3.034337E-06    1.432248E-04
         4.406147E-03    7.989467E-02    0.761429         3.57971         10.1057         14.0795         10.1057         3.57971        0.761429        7.989467E-02
         4.406147E-03    1.432248E-04    3.034337E-06    4.529670E-08    5.052269E-10    4.349975E-12    2.686652E-14    1.180474E-17   -5.641123E-18   -2.341509E-19
        -8.024435E-21
  18    -9.487878E-22   -3.102959E-20   -8.695644E-19   -1.493855E-17    9.697543E-16    2.325144E-13    2.993130E-11    2.891263E-09    2.109823E-07    1.111194E-05
         3.963913E-04    8.867785E-03    0.114869        0.829370         3.57971         8.05962         3.57971        0.829370        0.114869        8.867785E-03
         3.963913E-04    1.111194E-05    2.109823E-07    2.891263E-09    2.993130E-11    2.325141E-13    9.697302E-16   -1.493973E-17   -8.696257E-19   -3.103216E-20
        -9.488783E-22
  19    -7.585768E-23   -2.692405E-21   -8.358789E-20   -2.093945E-18   -1.348641E-17    6.353927E-15    1.031701E-12    1.103379E-10    8.855769E-09    5.245686E-07
         2.187742E-05    6.075738E-04    1.066146E-02    0.114869        0.761429         2.44761        0.761429        0.114869        1.066146E-02    6.075738E-04
         2.187742E-05    5.245686E-07    8.855769E-09    1.103379E-10    1.031700E-12    6.353823E-15   -1.349255E-17   -2.094318E-18   -8.360613E-20   -2.693103E-21
        -7.588036E-23
  20    -4.368957E-24   -1.707318E-22   -5.903982E-21   -1.737764E-19   -3.926930E-18    4.307038E-17    2.162699E-14    2.778412E-12    2.491180E-10    1.658912E-08
         8.015630E-07    2.698358E-05    6.075738E-04    8.867785E-03    7.989467E-02    0.335307        7.989467E-02    8.867785E-03    6.075738E-04    2.698358E-05
         8.015630E-07    1.658912E-08    2.491179E-10    2.778412E-12    2.162681E-14    4.304928E-17   -3.928659E-18   -1.738709E-19   -5.907842E-21   -1.708591E-22
        -4.372614E-24
  21    -1.791875E-25   -7.860182E-24   -3.082046E-22   -1.040159E-20   -2.967100E-19   -5.823557E-18    1.965042E-16    4.628163E-14    4.907481E-12    3.686375E-10
         2.031044E-08    8.015630E-07    2.187742E-05    3.963913E-04    4.406147E-03    2.223870E-02    4.406147E-03    3.963913E-04    2.187742E-05    8.015630E-07
         2.031044E-08    3.686374E-10    4.907482E-12    4.628136E-14    1.964464E-16   -5.829445E-18   -2.970580E-19   -1.041644E-20   -3.087058E-22   -7.874343E-24
        -1.795429E-25
  22    -5.274305E-27   -2.638647E-25   -1.190068E-23   -4.649061E-22   -1.546633E-20   -4.266477E-19   -7.033874E-18    3.933018E-16    6.677567E-14    5.908752E-12
         3.686375E-10    1.658912E-08    5.245686E-07    1.111194E-05    1.432248E-04    8.246355E-04    1.432248E-04    1.111194E-05    5.245686E-07    1.658912E-08
         3.686374E-10    5.908755E-12    6.677533E-14    3.931885E-16   -7.047512E-18   -4.275248E-19   -1.550580E-20   -4.662807E-22   -1.193993E-23   -2.648231E-25
        -5.295346E-27
  23    -1.126855E-28   -6.525669E-27   -3.427974E-25   -1.568168E-23   -6.106985E-22   -1.993187E-20   -5.259196E-19   -7.460898E-18    4.868398E-16    6.677566E-14
         4.907480E-12    2.491180E-10    8.855769E-09    2.109823E-07    3.034337E-06    1.929294E-05    3.034337E-06    2.109823E-07    8.855769E-09    2.491179E-10
         4.907482E-12    6.677533E-14    4.866920E-16   -7.482073E-18   -5.274515E-19   -2.000659E-20   -6.134387E-22   -1.576203E-23   -3.447646E-25   -6.567325E-27
        -1.134835E-28
  24    -1.750184E-30   -1.193950E-28   -7.415178E-27   -4.022707E-25   -1.856637E-23   -7.141246E-22   -2.255985E-20   -5.629861E-19   -7.460017E-18    3.933109E-16
         4.628160E-14    2.778411E-12    1.103379E-10    2.891263E-09    4.529670E-08    3.114344E-07    4.529670E-08    2.891263E-09    1.103379E-10    2.778412E-12
         4.628136E-14    3.931885E-16   -7.482073E-18   -5.648727E-19   -2.266352E-20   -7.182512E-22   -1.869353E-23   -4.054479E-25   -7.481984E-27   -1.206161E-28
        -1.770435E-30
  25    -1.947747E-32   -1.605116E-30   -1.204935E-28   -7.890367E-27   -4.378685E-25   -2.011174E-23   -7.514170E-22   -2.255637E-20   -5.258032E-19   -7.032152E-18
         1.965128E-16    2.162699E-14    1.031701E-12    2.993130E-11    5.052269E-10    3.706829E-09    5.052269E-10    2.993130E-11    1.031700E-12    2.162681E-14
         1.964464E-16   -7.047512E-18   -5.274515E-19   -2.266352E-20   -7.562280E-22   -2.027249E-23   -4.420709E-25   -7.979756E-27   -1.220943E-28   -1.630049E-30
        -1.983040E-32
  26    -1.491443E-34   -1.549597E-32   -1.458616E-30   -1.185968E-28   -8.073547E-27   -4.494572E-25   -2.010738E-23   -7.138727E-22   -1.992417E-20   -4.265127E-19
        -5.822359E-18    4.307446E-17    6.353941E-15    2.325145E-13    4.349976E-12    3.406005E-11    4.349975E-12    2.325141E-13    6.353823E-15    4.304928E-17
        -5.829445E-18   -4.275248E-19   -2.000659E-20   -7.182512E-22   -2.027249E-23   -4.541308E-25   -8.177000E-27   -1.204498E-28   -1.486367E-30   -1.585606E-32
        -1.533985E-34
  27    -7.102220E-37   -1.018943E-34   -1.288220E-32   -1.364127E-30   -1.174370E-28   -8.071232E-27   -4.376588E-25   -1.855572E-23   -6.103555E-22   -1.545944E-20
        -2.966312E-19   -3.926491E-18   -1.348518E-17    9.697580E-16    2.686658E-14    2.395639E-13    2.686652E-14    9.697302E-16   -1.349255E-17   -3.928659E-18
        -2.970580E-19   -1.550580E-20   -6.134387E-22   -1.869353E-23   -4.420709E-25   -8.177000E-27   -1.193997E-28   -1.393140E-30   -1.323480E-32   -1.055680E-34
        -7.452107E-37
  28    -1.452067E-39   -3.985254E-37   -7.947387E-35   -1.195560E-32   -1.363586E-30   -1.185202E-28   -7.884201E-27   -4.019446E-25   -1.567017E-23   -4.646438E-22
        -1.039802E-20   -1.737504E-19   -2.093852E-18   -1.493834E-17    1.180744E-17    8.146474E-16    1.180474E-17   -1.493973E-17   -2.094318E-18   -1.738709E-19
        -1.041644E-20   -4.662807E-22   -1.576203E-23   -4.054479E-25   -7.979756E-27   -1.204498E-28   -1.393140E-30   -1.230595E-32   -8.277444E-35   -4.244985E-37
        -1.640162E-39
  29     3.152566E-42   -4.630601E-40   -3.088974E-37   -7.942164E-35   -1.286996E-32   -1.457020E-30   -1.203573E-28   -7.407262E-27   -3.424859E-25   -1.189266E-23
        -3.080780E-22   -5.902877E-21   -8.358303E-20   -8.695525E-19   -5.640997E-18   -1.869370E-17   -5.641123E-18   -8.696257E-19   -8.360613E-20   -5.907842E-21
        -3.087058E-22   -1.193993E-23   -3.447646E-25   -7.481984E-27   -1.220943E-28   -1.486367E-30   -1.323480E-32   -8.277444E-35   -3.318465E-37   -5.854769E-40
         2.551138E-42
  30     2.030534E-44    3.234902E-42   -4.613259E-40   -3.977485E-37   -1.017152E-34   -1.547022E-32   -1.602647E-30   -1.192338E-28   -6.518539E-27   -2.636577E-25
        -7.856466E-24   -1.706942E-22   -2.692212E-21   -3.102907E-20   -2.341455E-19   -1.073797E-18   -2.341509E-19   -3.103216E-20   -2.693103E-21   -1.708591E-22
        -7.874343E-24   -2.648231E-25   -6.567325E-27   -1.206161E-28   -1.630049E-30   -1.585606E-32   -1.055680E-34   -4.244985E-37   -5.854769E-40    2.863599E-42
         1.938892E-44
  31      0.00000        2.032042E-44    3.169823E-42   -1.443901E-39   -7.080626E-37   -1.487862E-34   -1.943818E-32   -1.747269E-30   -1.125399E-28   -5.269546E-27
        -1.790911E-25   -4.367850E-24   -7.585121E-23   -9.487690E-22   -8.024234E-21   -4.407338E-20   -8.024435E-21   -9.488783E-22   -7.588036E-23   -4.372614E-24
        -1.795429E-25   -5.295346E-27   -1.134835E-28   -1.770435E-30   -1.983040E-32   -1.533985E-34   -7.452107E-37   -1.640162E-39    2.551138E-42    1.938892E-44
          0.00000    

 CONCENTRATION WILL BE SAVED ON UNIT 1030 AT END OF TIME STEP   56, STRESS PERIOD    2


  MASS BUDGET FOR ENTIRE MODEL AT END OF TIME STEP   56, STRESS PERIOD   2
  ---------------------------------------------------------------------------------------------------

     CUMULATIVE MASS      M       RATES FOR THIS TIME STEP      M/T          PACKAGE NAME    
     ------------------                 ------------------------                     ----------------

           IN:                                      IN:
           ---                                      ---
     STORAGE-AQUEOUS =  6763760445.8149       STORAGE-AQUEOUS =     1592931.9028     MST                              
                 WEL =  7884000000.0000                   WEL =           0.0000     SSM_WEL-1                        
                 CHD =           0.0000                   CHD =           0.0000     SSM_CHD-1                        

            TOTAL IN = 14647760445.8149              TOTAL IN =     1592931.9028

          OUT:                                     OUT:
          ----                                     ----
     STORAGE-AQUEOUS =  7888703896.1691       STORAGE-AQUEOUS =          56.8077     MST                              
                 WEL =  6759056549.6459                   WEL =     1592875.0950     SSM_WEL-1                        
                 CHD =       7.5562E-18                   CHD =           0.0000     SSM_CHD-1                        

           TOTAL OUT = 14647760445.8150             TOTAL OUT =     1592931.9028

            IN - OUT =      -9.7275E-05              IN - OUT =      -4.3539E-08

 PERCENT DISCREPANCY =          -0.00     PERCENT DISCREPANCY =          -0.00




         TIME SUMMARY AT END OF TIME STEP   56 IN STRESS PERIOD    2
                    SECONDS     MINUTES      HOURS       DAYS        YEARS
                    -----------------------------------------------------------
   TIME STEP LENGTH 2.16991E+06  36165.      602.75      25.115     6.87602E-02
 STRESS PERIOD TIME 1.21515E+08 2.02525E+06  33754.      1406.4      3.8506    
         TOTAL TIME 2.00355E+08 3.33925E+06  55654.      2318.9      6.3489    


end timestep


start timestep kper="2" kstp="57" mode="normal"

 UBDSV1 SAVING  STORAGE-AQUEOUS ON UNIT   1029 AT TIME STEP     57, STRESS PERIOD      2
 UBDSV1 SAVING     FLOW-JA-FACE ON UNIT   1029 AT TIME STEP     57, STRESS PERIOD      2
 UBDSV06 SAVING  SOURCE-SINK MIX IN MODEL GWT_P06-MF6      PACKAGE GWT_P06-MF6     CONNECTED TO MODEL GWT_P06-MF6      PACKAGE SSM              ON UNIT   1029 AT TIME STEP     57, STRESS PERIOD      2
1
  CONCENTRATION IN LAYER   1 AT END OF TIME STEP  57 IN STRESS PERIOD    2
  ---------------------------------------------------------------------------

                1               2               3               4               5               6               7               8               9              10
               11              12              13              14              15              16              17              18              19              20
               21              22              23              24              25              26              27              28              29              30
               31
 ................................................................................................................................................................................................................................................................................................................................................................................................................................................................................................................
   1      0.00000        1.969678E-44    2.243887E-42   -1.851682E-39   -8.040001E-37   -1.630813E-34   -2.089280E-32   -1.852172E-30   -1.179940E-28   -5.474974E-27
        -1.846859E-25   -4.477984E-24   -7.743484E-23   -9.651582E-22   -8.133526E-21   -4.440836E-20   -8.133344E-21   -9.650667E-22   -7.741187E-23   -4.474270E-24
        -1.843236E-25   -5.453440E-27   -1.171735E-28   -1.831249E-30   -2.052634E-32   -1.586411E-34   -7.672852E-37   -1.653149E-39    2.883131E-42    2.068036E-44
          0.00000    
   2     1.969678E-44    2.736526E-42   -6.925643E-40   -4.593420E-37   -1.122167E-34   -1.669790E-32   -1.704909E-30   -1.254237E-28   -6.792881E-27   -2.725582E-25
        -8.067129E-24   -1.743395E-22   -2.738855E-21   -3.144946E-20   -2.363754E-19   -1.076809E-18   -2.363706E-19   -3.144687E-20   -2.738150E-21   -1.742106E-22
        -8.052744E-24   -2.715808E-25   -6.750215E-27   -1.241675E-28   -1.679144E-30   -1.632414E-32   -1.083863E-34   -4.321325E-37   -5.636163E-40    3.130549E-42
         2.069670E-44
   3     2.243887E-42   -6.925643E-40   -3.597430E-37   -8.798106E-35   -1.393022E-32   -1.553911E-30   -1.269312E-28   -7.739203E-27   -3.549281E-25   -1.223690E-23
        -3.150785E-22   -6.007533E-21   -8.468673E-20   -8.747410E-19   -5.589852E-18   -1.795764E-17   -5.589739E-18   -8.746793E-19   -8.466837E-20   -6.003639E-21
        -3.145711E-22   -1.219701E-23   -3.529204E-25   -7.670739E-27   -1.252839E-28   -1.525238E-30   -1.356443E-32   -8.454250E-35   -3.357188E-37   -5.617749E-40
         2.901640E-42
   4    -1.851682E-39   -4.593420E-37   -8.798106E-35   -1.294951E-32   -1.455910E-30   -1.251811E-28   -8.252637E-27   -4.174048E-25   -1.615721E-23   -4.760522E-22
        -1.059361E-20   -1.759218E-19   -2.090942E-18   -1.408521E-17    3.122208E-17    9.712090E-16    3.122447E-17   -1.408402E-17   -2.090566E-18   -1.758269E-19
        -1.057863E-20   -4.746601E-22   -1.607550E-23   -4.141607E-25   -8.161003E-27   -1.232742E-28   -1.425938E-30   -1.258613E-32   -8.448781E-35   -4.313135E-37
        -1.644467E-39
   5    -8.040001E-37   -1.122167E-34   -1.393022E-32   -1.455910E-30   -1.240719E-28   -8.455272E-27   -4.550690E-25   -1.916310E-23   -6.264096E-22   -1.577052E-20
        -3.000180E-19   -3.862877E-18   -8.068705E-18    1.142747E-15    2.982704E-14    2.610191E-13    2.982709E-14    1.142771E-15   -8.062535E-18   -3.861146E-18
        -2.996684E-19   -1.573070E-20   -6.236336E-22   -1.903374E-23   -4.507771E-25   -8.349209E-27   -1.220521E-28   -1.425376E-30   -1.355169E-32   -1.081987E-34
        -7.650063E-37
   6    -1.630813E-34   -1.669790E-32   -1.553911E-30   -1.251811E-28   -8.455272E-27   -4.674619E-25   -2.078152E-23   -7.334887E-22   -2.034638E-20   -4.307828E-19
        -5.593714E-18    6.246192E-17    7.186936E-15    2.548876E-13    4.699823E-12    3.642035E-11    4.699823E-12    2.548880E-13    7.187040E-15    6.248290E-17
        -5.587829E-18   -4.299019E-19   -2.027100E-20   -7.293071E-22   -2.061797E-23   -4.626883E-25   -8.346830E-27   -1.231952E-28   -1.523584E-30   -1.629732E-32
        -1.582657E-34
   7    -2.089280E-32   -1.704909E-30   -1.269312E-28   -8.252637E-27   -4.550690E-25   -2.078152E-23   -7.722812E-22   -2.304598E-20   -5.303955E-19   -6.552478E-18
         2.420992E-16    2.412860E-14    1.124259E-12    3.218297E-11    5.375589E-10    3.906998E-09    5.375589E-10    3.218297E-11    1.124260E-12    2.412878E-14
         2.421564E-16   -6.538857E-18   -5.288570E-19   -2.294136E-20   -7.674055E-22   -2.061352E-23   -4.505626E-25   -8.154672E-27   -1.251434E-28   -1.676587E-30
        -2.048541E-32
   8    -1.852172E-30   -1.254237E-28   -7.739203E-27   -4.174048E-25   -1.916310E-23   -7.334887E-22   -2.304598E-20   -5.675678E-19   -6.779656E-18    4.680704E-16
         5.131813E-14    3.017106E-12    1.182219E-10    3.063117E-09    4.750391E-08    3.235633E-07    4.750391E-08    3.063117E-09    1.182219E-10    3.017106E-12
         5.131840E-14    4.681823E-16   -6.758515E-18   -5.656731E-19   -2.293786E-20   -7.290517E-22   -1.902290E-23   -4.138273E-25   -7.662614E-27   -1.240013E-28
        -1.828231E-30
   9    -1.179940E-28   -6.792881E-27   -3.549281E-25   -1.615721E-23   -6.264096E-22   -2.034638E-20   -5.303955E-19   -6.779656E-18    5.747484E-16    7.385519E-14
         5.318654E-12    2.662654E-10    9.349971E-09    2.202554E-07    3.135508E-06    1.975122E-05    3.135508E-06    2.202554E-07    9.349971E-09    2.662654E-10
         5.318653E-12    7.385552E-14    5.748942E-16   -6.757637E-18   -5.287402E-19   -2.026322E-20   -6.232859E-22   -1.606379E-23   -3.526022E-25   -6.742903E-27
        -1.170236E-28
  10    -5.474974E-27   -2.725582E-25   -1.223690E-23   -4.760522E-22   -1.577052E-20   -4.307828E-19   -6.552478E-18    4.680704E-16    7.385519E-14    6.399748E-12
         3.935111E-10    1.747533E-08    5.456857E-07    1.142632E-05    1.457775E-04    8.316986E-04    1.457775E-04    1.142632E-05    5.456857E-07    1.747533E-08
         3.935112E-10    6.399745E-12    7.385551E-14    4.681912E-16   -6.537140E-18   -4.297664E-19   -1.572375E-20   -4.743944E-22   -1.218885E-23   -2.713695E-25
        -5.448566E-27
  11    -1.846859E-25   -8.067129E-24   -3.150785E-22   -1.059361E-20   -3.000180E-19   -5.593714E-18    2.420992E-16    5.131813E-14    5.318654E-12    3.935111E-10
         2.137856E-08    8.321900E-07    2.241711E-05    4.013817E-04    4.416758E-03    2.209917E-02    4.416758E-03    4.013817E-04    2.241711E-05    8.321900E-07
         2.137856E-08    3.935112E-10    5.318652E-12    5.131836E-14    2.421649E-16   -5.586634E-18   -2.995894E-19   -1.057502E-20   -3.144429E-22   -8.048969E-24
        -1.842253E-25
  12    -4.477984E-24   -1.743395E-22   -6.007533E-21   -1.759218E-19   -3.862877E-18    6.246192E-17    2.412860E-14    3.017106E-12    2.662654E-10    1.747533E-08
         8.321900E-07    2.761327E-05    6.132745E-04    8.843547E-03    7.891080E-02    0.328630        7.891080E-02    8.843547E-03    6.132745E-04    2.761327E-05
         8.321900E-07    1.747533E-08    2.662654E-10    3.017105E-12    2.412878E-14    6.248693E-17   -3.860706E-18   -1.758007E-19   -6.002525E-21   -1.741726E-22
        -4.473146E-24
  13    -7.743484E-23   -2.738855E-21   -8.468673E-20   -2.090942E-18   -8.068705E-18    7.186936E-15    1.124259E-12    1.182219E-10    9.349971E-09    5.456857E-07
         2.241711E-05    6.132745E-04    1.060994E-02    0.112955        0.742461         2.37330        0.742461        0.112955        1.060994E-02    6.132745E-04
         2.241711E-05    5.456857E-07    9.349971E-09    1.182219E-10    1.124260E-12    7.187054E-15   -8.061300E-18   -2.090474E-18   -8.466349E-20   -2.737955E-21
        -7.740533E-23
  14    -9.651582E-22   -3.144946E-20   -8.747410E-19   -1.408521E-17    1.142747E-15    2.548876E-13    3.218297E-11    3.063117E-09    2.202554E-07    1.142632E-05
         4.013817E-04    8.843547E-03    0.112955        0.806743         3.46199         7.77605         3.46199        0.806743        0.112955        8.843547E-03
         4.013817E-04    1.142632E-05    2.202554E-07    3.063117E-09    3.218297E-11    2.548880E-13    1.142774E-15   -1.408382E-17   -8.746675E-19   -3.144635E-20
        -9.650477E-22
  15    -8.133526E-21   -2.363754E-19   -5.589852E-18    3.122208E-17    2.982704E-14    4.699823E-12    5.375589E-10    4.750391E-08    3.135508E-06    1.457775E-04
         4.416758E-03    7.891080E-02    0.742461         3.46199         9.75017         13.5705         9.75017         3.46199        0.742461        7.891080E-02
         4.416758E-03    1.457775E-04    3.135508E-06    4.750391E-08    5.375589E-10    4.699823E-12    2.982710E-14    3.122479E-17   -5.589725E-18   -2.363700E-19
        -8.133323E-21
  16    -4.440836E-20   -1.076809E-18   -1.795764E-17    9.712090E-16    2.610191E-13    3.642035E-11    3.906998E-09    3.235633E-07    1.975122E-05    8.316986E-04
         2.209917E-02    0.328630         2.37330         7.77605         13.5705         17.7626         13.5705         7.77605         2.37330        0.328630    
         2.209917E-02    8.316986E-04    1.975122E-05    3.235633E-07    3.906998E-09    3.642035E-11    2.610191E-13    9.712090E-16   -1.795764E-17   -1.076809E-18
        -4.440836E-20
  17    -8.133344E-21   -2.363706E-19   -5.589739E-18    3.122447E-17    2.982709E-14    4.699823E-12    5.375589E-10    4.750391E-08    3.135508E-06    1.457775E-04
         4.416758E-03    7.891080E-02    0.742461         3.46199         9.75017         13.5705         9.75017         3.46199        0.742461        7.891080E-02
         4.416758E-03    1.457775E-04    3.135508E-06    4.750391E-08    5.375589E-10    4.699823E-12    2.982704E-14    3.122209E-17   -5.589852E-18   -2.363754E-19
        -8.133526E-21
  18    -9.650667E-22   -3.144687E-20   -8.746793E-19   -1.408402E-17    1.142771E-15    2.548880E-13    3.218297E-11    3.063117E-09    2.202554E-07    1.142632E-05
         4.013817E-04    8.843547E-03    0.112955        0.806743         3.46199         7.77605         3.46199        0.806743        0.112955        8.843547E-03
         4.013817E-04    1.142632E-05    2.202554E-07    3.063117E-09    3.218297E-11    2.548876E-13    1.142747E-15   -1.408521E-17   -8.747410E-19   -3.144946E-20
        -9.651582E-22
  19    -7.741187E-23   -2.738150E-21   -8.466837E-20   -2.090566E-18   -8.062535E-18    7.187040E-15    1.124260E-12    1.182219E-10    9.349971E-09    5.456857E-07
         2.241711E-05    6.132745E-04    1.060994E-02    0.112955        0.742461         2.37330        0.742461        0.112955        1.060994E-02    6.132745E-04
         2.241711E-05    5.456857E-07    9.349971E-09    1.182219E-10    1.124259E-12    7.186936E-15   -8.068705E-18   -2.090942E-18   -8.468673E-20   -2.738855E-21
        -7.743484E-23
  20    -4.474270E-24   -1.742106E-22   -6.003639E-21   -1.758269E-19   -3.861146E-18    6.248290E-17    2.412878E-14    3.017106E-12    2.662654E-10    1.747533E-08
         8.321900E-07    2.761327E-05    6.132745E-04    8.843547E-03    7.891080E-02    0.328630        7.891080E-02    8.843547E-03    6.132745E-04    2.761327E-05
         8.321900E-07    1.747533E-08    2.662654E-10    3.017106E-12    2.412860E-14    6.246192E-17   -3.862877E-18   -1.759218E-19   -6.007533E-21   -1.743395E-22
        -4.477984E-24
  21    -1.843236E-25   -8.052744E-24   -3.145711E-22   -1.057863E-20   -2.996684E-19   -5.587829E-18    2.421564E-16    5.131840E-14    5.318653E-12    3.935112E-10
         2.137856E-08    8.321900E-07    2.241711E-05    4.013817E-04    4.416758E-03    2.209917E-02    4.416758E-03    4.013817E-04    2.241711E-05    8.321900E-07
         2.137856E-08    3.935111E-10    5.318654E-12    5.131813E-14    2.420992E-16   -5.593714E-18   -3.000180E-19   -1.059361E-20   -3.150785E-22   -8.067129E-24
        -1.846859E-25
  22    -5.453440E-27   -2.715808E-25   -1.219701E-23   -4.746601E-22   -1.573070E-20   -4.299019E-19   -6.538857E-18    4.681823E-16    7.385552E-14    6.399745E-12
         3.935112E-10    1.747533E-08    5.456857E-07    1.142632E-05    1.457775E-04    8.316986E-04    1.457775E-04    1.142632E-05    5.456857E-07    1.747533E-08
         3.935111E-10    6.399748E-12    7.385519E-14    4.680704E-16   -6.552478E-18   -4.307828E-19   -1.577052E-20   -4.760522E-22   -1.223690E-23   -2.725582E-25
        -5.474974E-27
  23    -1.171735E-28   -6.750215E-27   -3.529204E-25   -1.607550E-23   -6.236336E-22   -2.027100E-20   -5.288570E-19   -6.758515E-18    5.748942E-16    7.385551E-14
         5.318652E-12    2.662654E-10    9.349971E-09    2.202554E-07    3.135508E-06    1.975122E-05    3.135508E-06    2.202554E-07    9.349971E-09    2.662654E-10
         5.318654E-12    7.385519E-14    5.747484E-16   -6.779656E-18   -5.303955E-19   -2.034638E-20   -6.264096E-22   -1.615721E-23   -3.549281E-25   -6.792881E-27
        -1.179940E-28
  24    -1.831249E-30   -1.241675E-28   -7.670739E-27   -4.141607E-25   -1.903374E-23   -7.293071E-22   -2.294136E-20   -5.656731E-19   -6.757637E-18    4.681912E-16
         5.131836E-14    3.017105E-12    1.182219E-10    3.063117E-09    4.750391E-08    3.235633E-07    4.750391E-08    3.063117E-09    1.182219E-10    3.017106E-12
         5.131813E-14    4.680704E-16   -6.779656E-18   -5.675678E-19   -2.304598E-20   -7.334887E-22   -1.916310E-23   -4.174048E-25   -7.739203E-27   -1.254237E-28
        -1.852172E-30
  25    -2.052634E-32   -1.679144E-30   -1.252839E-28   -8.161003E-27   -4.507771E-25   -2.061797E-23   -7.674055E-22   -2.293786E-20   -5.287402E-19   -6.537140E-18
         2.421649E-16    2.412878E-14    1.124260E-12    3.218297E-11    5.375589E-10    3.906998E-09    5.375589E-10    3.218297E-11    1.124259E-12    2.412860E-14
         2.420992E-16   -6.552478E-18   -5.303955E-19   -2.304598E-20   -7.722812E-22   -2.078152E-23   -4.550690E-25   -8.252637E-27   -1.269312E-28   -1.704909E-30
        -2.089280E-32
  26    -1.586411E-34   -1.632414E-32   -1.525238E-30   -1.232742E-28   -8.349209E-27   -4.626883E-25   -2.061352E-23   -7.290517E-22   -2.026322E-20   -4.297664E-19
        -5.586634E-18    6.248693E-17    7.187054E-15    2.548880E-13    4.699823E-12    3.642035E-11    4.699823E-12    2.548876E-13    7.186936E-15    6.246192E-17
        -5.593714E-18   -4.307828E-19   -2.034638E-20   -7.334887E-22   -2.078152E-23   -4.674619E-25   -8.455272E-27   -1.251811E-28   -1.553911E-30   -1.669790E-32
        -1.630813E-34
  27    -7.672852E-37   -1.083863E-34   -1.356443E-32   -1.425938E-30   -1.220521E-28   -8.346830E-27   -4.505626E-25   -1.902290E-23   -6.232859E-22   -1.572375E-20
        -2.995894E-19   -3.860706E-18   -8.061300E-18    1.142774E-15    2.982710E-14    2.610191E-13    2.982704E-14    1.142747E-15   -8.068705E-18   -3.862877E-18
        -3.000180E-19   -1.577052E-20   -6.264096E-22   -1.916310E-23   -4.550690E-25   -8.455272E-27   -1.240719E-28   -1.455910E-30   -1.393022E-32   -1.122167E-34
        -8.040001E-37
  28    -1.653149E-39   -4.321325E-37   -8.454250E-35   -1.258613E-32   -1.425376E-30   -1.231952E-28   -8.154672E-27   -4.138273E-25   -1.606379E-23   -4.743944E-22
        -1.057502E-20   -1.758007E-19   -2.090474E-18   -1.408382E-17    3.122479E-17    9.712090E-16    3.122209E-17   -1.408521E-17   -2.090942E-18   -1.759218E-19
        -1.059361E-20   -4.760522E-22   -1.615721E-23   -4.174048E-25   -8.252637E-27   -1.251811E-28   -1.455910E-30   -1.294951E-32   -8.798106E-35   -4.593419E-37
        -1.851682E-39
  29     2.883131E-42   -5.636163E-40   -3.357188E-37   -8.448781E-35   -1.355169E-32   -1.523584E-30   -1.251434E-28   -7.662614E-27   -3.526022E-25   -1.218885E-23
        -3.144429E-22   -6.002525E-21   -8.466349E-20   -8.746675E-19   -5.589725E-18   -1.795764E-17   -5.589852E-18   -8.747410E-19   -8.468673E-20   -6.007533E-21
        -3.150785E-22   -1.223690E-23   -3.549281E-25   -7.739203E-27   -1.269312E-28   -1.553911E-30   -1.393022E-32   -8.798106E-35   -3.597430E-37   -6.925642E-40
         2.243887E-42
  30     2.068036E-44    3.130549E-42   -5.617749E-40   -4.313135E-37   -1.081987E-34   -1.629732E-32   -1.676587E-30   -1.240013E-28   -6.742903E-27   -2.713695E-25
        -8.048969E-24   -1.741726E-22   -2.737955E-21   -3.144635E-20   -2.363700E-19   -1.076809E-18   -2.363754E-19   -3.144946E-20   -2.738855E-21   -1.743395E-22
        -8.067129E-24   -2.725582E-25   -6.792881E-27   -1.254237E-28   -1.704909E-30   -1.669790E-32   -1.122167E-34   -4.593419E-37   -6.925642E-40    2.736526E-42
         1.969678E-44
  31      0.00000        2.069670E-44    2.901640E-42   -1.644467E-39   -7.650063E-37   -1.582657E-34   -2.048541E-32   -1.828231E-30   -1.170236E-28   -5.448566E-27
        -1.842253E-25   -4.473146E-24   -7.740533E-23   -9.650477E-22   -8.133323E-21   -4.440836E-20   -8.133526E-21   -9.651582E-22   -7.743484E-23   -4.477984E-24
        -1.846859E-25   -5.474974E-27   -1.179940E-28   -1.852172E-30   -2.089280E-32   -1.630813E-34   -8.040001E-37   -1.851682E-39    2.243887E-42    1.969678E-44
          0.00000    

 CONCENTRATION WILL BE SAVED ON UNIT 1030 AT END OF TIME STEP   57, STRESS PERIOD    2


  MASS BUDGET FOR ENTIRE MODEL AT END OF TIME STEP   57, STRESS PERIOD   2
  ---------------------------------------------------------------------------------------------------

     CUMULATIVE MASS      M       RATES FOR THIS TIME STEP      M/T          PACKAGE NAME    
     ------------------                 ------------------------                     ----------------

           IN:                                      IN:
           ---                                      ---
     STORAGE-AQUEOUS =  6802305002.4280       STORAGE-AQUEOUS =     1534742.1629     MST                              
                 WEL =  7884000000.0000                   WEL =           0.0000     SSM_WEL-1                        
                 CHD =           0.0000                   CHD =           0.0000     SSM_CHD-1                        

            TOTAL IN = 14686305002.4280              TOTAL IN =     1534742.1629

          OUT:                                     OUT:
          ----                                     ----
     STORAGE-AQUEOUS =  7888705209.6620       STORAGE-AQUEOUS =          52.2998     MST                              
                 WEL =  6797599792.7661                   WEL =     1534689.8630     SSM_WEL-1                        
                 CHD =       7.5562E-18                   CHD =           0.0000     SSM_CHD-1                        

           TOTAL OUT = 14686305002.4281             TOTAL OUT =     1534742.1629

            IN - OUT =      -9.7275E-05              IN - OUT =      -4.1444E-08

 PERCENT DISCREPANCY =          -0.00     PERCENT DISCREPANCY =          -0.00




         TIME SUMMARY AT END OF TIME STEP   57 IN STRESS PERIOD    2
                    SECONDS     MINUTES      HOURS       DAYS        YEARS
                    -----------------------------------------------------------
   TIME STEP LENGTH 2.16991E+06  36165.      602.75      25.115     6.87602E-02
 STRESS PERIOD TIME 1.23685E+08 2.06141E+06  34357.      1431.5      3.9193    
         TOTAL TIME 2.02525E+08 3.37541E+06  56257.      2344.0      6.4176    


end timestep


start timestep kper="2" kstp="58" mode="normal"

 UBDSV1 SAVING  STORAGE-AQUEOUS ON UNIT   1029 AT TIME STEP     58, STRESS PERIOD      2
 UBDSV1 SAVING     FLOW-JA-FACE ON UNIT   1029 AT TIME STEP     58, STRESS PERIOD      2
 UBDSV06 SAVING  SOURCE-SINK MIX IN MODEL GWT_P06-MF6      PACKAGE GWT_P06-MF6     CONNECTED TO MODEL GWT_P06-MF6      PACKAGE SSM              ON UNIT   1029 AT TIME STEP     58, STRESS PERIOD      2
1
  CONCENTRATION IN LAYER   1 AT END OF TIME STEP  58 IN STRESS PERIOD    2
  ---------------------------------------------------------------------------

                1               2               3               4               5               6               7               8               9              10
               11              12              13              14              15              16              17              18              19              20
               21              22              23              24              25              26              27              28              29              30
               31
 ................................................................................................................................................................................................................................................................................................................................................................................................................................................................................................................
   1      0.00000        1.997167E-44    1.896260E-42   -2.079682E-39   -8.664292E-37   -1.732719E-34   -2.200323E-32   -1.937093E-30   -1.226545E-28   -5.659636E-27
        -1.899488E-25   -4.585391E-24   -7.901390E-23   -9.816307E-22   -8.243333E-21   -4.474257E-20   -8.243149E-21   -9.815382E-22   -7.899063E-23   -4.581619E-24
        -1.895796E-25   -5.637599E-27   -1.218110E-28   -1.915479E-30   -2.162279E-32   -1.686387E-34   -8.279144E-37   -1.870209E-39    2.575368E-42    2.102655E-44
          0.00000    
   2     1.997167E-44    2.588966E-42   -8.082484E-40   -4.963348E-37   -1.192106E-34   -1.757749E-32   -1.782680E-30   -1.303922E-28   -7.024839E-27   -2.804763E-25
        -8.263653E-24   -1.778743E-22   -2.785114E-21   -3.186757E-20   -2.385468E-19   -1.079302E-18   -2.385419E-19   -3.186496E-20   -2.784402E-21   -1.777437E-22
        -8.249041E-24   -2.794794E-25   -6.981142E-27   -1.291000E-28   -1.756061E-30   -1.718962E-32   -1.152177E-34   -4.678373E-37   -6.724638E-40    3.006911E-42
         2.104425E-44
   3     1.896260E-42   -8.082484E-40   -3.893580E-37   -9.345584E-35   -1.465655E-32   -1.624064E-30   -1.319296E-28   -8.003761E-27   -3.653347E-25   -1.253971E-23
        -3.215503E-22   -6.108175E-21   -8.575746E-20   -8.791936E-19   -5.525433E-18   -1.712270E-17   -5.525319E-18   -8.791317E-19   -8.573898E-20   -6.104247E-21
        -3.210366E-22   -1.249917E-23   -3.632859E-25   -7.933606E-27   -1.302348E-28   -1.594443E-30   -1.427713E-32   -8.987420E-35   -3.642142E-37   -6.705094E-40
         2.595207E-42
   4    -2.079682E-39   -4.963348E-37   -9.345584E-35   -1.362155E-32   -1.521091E-30   -1.300699E-28   -8.533300E-27   -4.296493E-25   -1.656024E-23   -4.859749E-22
        -1.077198E-20   -1.779058E-19   -2.083352E-18   -1.310658E-17    5.250591E-17    1.140337E-15    5.250830E-17   -1.310538E-17   -2.082975E-18   -1.778104E-19
        -1.075687E-20   -4.845653E-22   -1.647716E-23   -4.263374E-25   -8.439377E-27   -1.281078E-28   -1.490132E-30   -1.324471E-32   -8.981695E-35   -4.669743E-37
        -1.860982E-39
   5    -8.664292E-37   -1.192106E-34   -1.465655E-32   -1.521091E-30   -1.288992E-28   -8.741466E-27   -4.683803E-25   -1.964206E-23   -6.395790E-22   -1.603610E-20
        -3.027512E-19   -3.781042E-18   -1.997010E-18    1.331057E-15    3.301044E-14    2.838610E-13    3.301049E-14    1.331081E-15   -1.990846E-18   -3.779309E-18
        -3.024001E-19   -1.599593E-20   -6.367669E-22   -1.951048E-23   -4.639974E-25   -8.632740E-27   -1.268209E-28   -1.489551E-30   -1.426387E-32   -1.150212E-34
        -8.255104E-37
   6    -1.732719E-34   -1.757749E-32   -1.624064E-30   -1.300699E-28   -8.741466E-27   -4.811144E-25   -2.130076E-23   -7.489559E-22   -2.068607E-20   -4.335380E-19
        -5.316709E-18    8.388084E-17    8.089851E-15    2.788456E-13    5.070565E-12    3.889714E-11    5.070566E-12    2.788460E-13    8.089954E-15    8.390170E-17
        -5.310826E-18   -4.326534E-19   -2.061002E-20   -7.447189E-22   -2.113436E-23   -4.762390E-25   -8.630297E-27   -1.280263E-28   -1.592730E-30   -1.716169E-32
        -1.682454E-34
   7    -2.200323E-32   -1.782680E-30   -1.319296E-28   -8.533300E-27   -4.683803E-25   -2.130076E-23   -7.885748E-22   -2.342744E-20   -5.325472E-19   -5.981769E-18
         2.922626E-16    2.683202E-14    1.223032E-12    3.455866E-11    5.713080E-10    4.113814E-09    5.713080E-10    3.455866E-11    1.223033E-12    2.683220E-14
         2.923192E-16   -5.968168E-18   -5.310023E-19   -2.332188E-20   -7.836341E-22   -2.112983E-23   -4.637781E-25   -8.432877E-27   -1.300899E-28   -1.753411E-30
        -2.158016E-32
   8    -1.937093E-30   -1.303922E-28   -8.003761E-27   -4.296493E-25   -1.964206E-23   -7.489559E-22   -2.342744E-20   -5.693440E-19   -5.975466E-18    5.501714E-16
         5.675007E-14    3.271148E-12    1.265087E-10    3.241602E-09    4.977045E-08    3.358825E-07    4.977045E-08    3.241602E-09    1.265087E-10    3.271148E-12
         5.675034E-14    5.502818E-16   -5.954362E-18   -5.674414E-19   -2.331834E-20   -7.444600E-22   -1.949944E-23   -4.259966E-25   -7.925269E-27   -1.289287E-28
        -1.912354E-30
   9    -1.226545E-28   -7.024839E-27   -3.653347E-25   -1.656024E-23   -6.395790E-22   -2.068607E-20   -5.325472E-19   -5.975466E-18    6.712280E-16    8.148290E-14
         5.755520E-12    2.842384E-10    9.861049E-09    2.297210E-07    3.237484E-06    2.020710E-05    3.237484E-06    2.297210E-07    9.861049E-09    2.842384E-10
         5.755519E-12    8.148323E-14    6.713719E-16   -5.953487E-18   -5.308850E-19   -2.060217E-20   -6.364146E-22   -1.646525E-23   -3.629609E-25   -6.973646E-27
        -1.216567E-28
  10    -5.659636E-27   -2.804763E-25   -1.253971E-23   -4.859749E-22   -1.603610E-20   -4.335380E-19   -5.981769E-18    5.501714E-16    8.148290E-14    6.921117E-12
         4.195428E-10    1.838909E-08    5.671328E-07    1.174069E-05    1.482859E-04    8.384315E-04    1.482859E-04    1.174069E-05    5.671328E-07    1.838909E-08
         4.195428E-10    6.921114E-12    8.148321E-14    5.502906E-16   -5.966455E-18   -4.325173E-19   -1.598893E-20   -4.842962E-22   -1.249087E-23   -2.792639E-25
        -5.632607E-27
  11    -1.899488E-25   -8.263653E-24   -3.215503E-22   -1.077198E-20   -3.027512E-19   -5.316709E-18    2.922626E-16    5.675007E-14    5.755520E-12    4.195428E-10
         2.247872E-08    8.632023E-07    2.295315E-05    4.062045E-04    4.425584E-03    2.195462E-02    4.425584E-03    4.062045E-04    2.295315E-05    8.632023E-07
         2.247872E-08    4.195428E-10    5.755518E-12    5.675031E-14    2.923275E-16   -5.309634E-18   -3.023208E-19   -1.075323E-20   -3.209069E-22   -8.245207E-24
        -1.894794E-25
  12    -4.585391E-24   -1.778743E-22   -6.108175E-21   -1.779058E-19   -3.781042E-18    8.388084E-17    2.683202E-14    3.271148E-12    2.842384E-10    1.838909E-08
         8.632023E-07    2.823696E-05    6.186891E-04    8.816144E-03    7.792295E-02    0.322062        7.792295E-02    8.816144E-03    6.186891E-04    2.823696E-05
         8.632023E-07    1.838909E-08    2.842384E-10    3.271148E-12    2.683220E-14    8.390567E-17   -3.778870E-18   -1.777842E-19   -6.103123E-21   -1.777053E-22
        -4.580479E-24
  13    -7.901390E-23   -2.785114E-21   -8.575746E-20   -2.083352E-18   -1.997010E-18    8.089851E-15    1.223032E-12    1.265087E-10    9.861049E-09    5.671328E-07
         2.295315E-05    6.186891E-04    1.055496E-02    0.111054        0.723953         2.30142        0.723953        0.111054        1.055496E-02    6.186891E-04
         2.295315E-05    5.671328E-07    9.861049E-09    1.265087E-10    1.223033E-12    8.089968E-15   -1.989616E-18   -2.082882E-18   -8.573407E-20   -2.784205E-21
        -7.898401E-23
  14    -9.816307E-22   -3.186757E-20   -8.791936E-19   -1.310658E-17    1.331057E-15    2.788456E-13    3.455866E-11    3.241602E-09    2.297210E-07    1.174069E-05
         4.062045E-04    8.816144E-03    0.111054        0.784740         3.34845         7.50320         3.34845        0.784740        0.111054        8.816144E-03
         4.062045E-04    1.174069E-05    2.297210E-07    3.241602E-09    3.455866E-11    2.788461E-13    1.331085E-15   -1.310517E-17   -8.791197E-19   -3.186443E-20
        -9.815190E-22
  15    -8.243333E-21   -2.385468E-19   -5.525433E-18    5.250591E-17    3.301044E-14    5.070565E-12    5.713080E-10    4.977045E-08    3.237484E-06    1.482859E-04
         4.425584E-03    7.792295E-02    0.723953         3.34845         9.40774         13.0809         9.40774         3.34845        0.723953        7.792295E-02
         4.425584E-03    1.482859E-04    3.237484E-06    4.977045E-08    5.713080E-10    5.070566E-12    3.301050E-14    5.250862E-17   -5.525305E-18   -2.385413E-19
        -8.243128E-21
  16    -4.474257E-20   -1.079302E-18   -1.712270E-17    1.140337E-15    2.838610E-13    3.889714E-11    4.113814E-09    3.358825E-07    2.020710E-05    8.384315E-04
         2.195462E-02    0.322062         2.30142         7.50320         13.0809         17.1147         13.0809         7.50320         2.30142        0.322062    
         2.195462E-02    8.384315E-04    2.020710E-05    3.358825E-07    4.113814E-09    3.889714E-11    2.838610E-13    1.140337E-15   -1.712270E-17   -1.079302E-18
        -4.474257E-20
  17    -8.243149E-21   -2.385419E-19   -5.525319E-18    5.250830E-17    3.301049E-14    5.070566E-12    5.713080E-10    4.977045E-08    3.237484E-06    1.482859E-04
         4.425584E-03    7.792295E-02    0.723953         3.34845         9.40774         13.0809         9.40774         3.34845        0.723953        7.792295E-02
         4.425584E-03    1.482859E-04    3.237484E-06    4.977045E-08    5.713080E-10    5.070565E-12    3.301044E-14    5.250591E-17   -5.525433E-18   -2.385468E-19
        -8.243332E-21
  18    -9.815382E-22   -3.186496E-20   -8.791317E-19   -1.310538E-17    1.331081E-15    2.788460E-13    3.455866E-11    3.241602E-09    2.297210E-07    1.174069E-05
         4.062045E-04    8.816144E-03    0.111054        0.784740         3.34845         7.50320         3.34845        0.784740        0.111054        8.816144E-03
         4.062045E-04    1.174069E-05    2.297210E-07    3.241602E-09    3.455866E-11    2.788456E-13    1.331057E-15   -1.310658E-17   -8.791936E-19   -3.186757E-20
        -9.816307E-22
  19    -7.899063E-23   -2.784402E-21   -8.573898E-20   -2.082975E-18   -1.990846E-18    8.089954E-15    1.223033E-12    1.265087E-10    9.861049E-09    5.671328E-07
         2.295315E-05    6.186891E-04    1.055496E-02    0.111054        0.723953         2.30142        0.723953        0.111054        1.055496E-02    6.186891E-04
         2.295315E-05    5.671328E-07    9.861049E-09    1.265087E-10    1.223032E-12    8.089851E-15   -1.997009E-18   -2.083352E-18   -8.575746E-20   -2.785114E-21
        -7.901390E-23
  20    -4.581619E-24   -1.777437E-22   -6.104247E-21   -1.778104E-19   -3.779309E-18    8.390170E-17    2.683220E-14    3.271148E-12    2.842384E-10    1.838909E-08
         8.632023E-07    2.823696E-05    6.186891E-04    8.816144E-03    7.792295E-02    0.322062        7.792295E-02    8.816144E-03    6.186891E-04    2.823696E-05
         8.632023E-07    1.838909E-08    2.842384E-10    3.271148E-12    2.683202E-14    8.388084E-17   -3.781042E-18   -1.779058E-19   -6.108175E-21   -1.778743E-22
        -4.585391E-24
  21    -1.895796E-25   -8.249041E-24   -3.210366E-22   -1.075687E-20   -3.024001E-19   -5.310826E-18    2.923192E-16    5.675034E-14    5.755519E-12    4.195428E-10
         2.247872E-08    8.632023E-07    2.295315E-05    4.062045E-04    4.425584E-03    2.195462E-02    4.425584E-03    4.062045E-04    2.295315E-05    8.632023E-07
         2.247872E-08    4.195428E-10    5.755520E-12    5.675007E-14    2.922626E-16   -5.316709E-18   -3.027512E-19   -1.077198E-20   -3.215503E-22   -8.263653E-24
        -1.899488E-25
  22    -5.637599E-27   -2.794794E-25   -1.249917E-23   -4.845653E-22   -1.599593E-20   -4.326534E-19   -5.968168E-18    5.502818E-16    8.148323E-14    6.921114E-12
         4.195428E-10    1.838909E-08    5.671328E-07    1.174069E-05    1.482859E-04    8.384315E-04    1.482859E-04    1.174069E-05    5.671328E-07    1.838909E-08
         4.195428E-10    6.921117E-12    8.148290E-14    5.501714E-16   -5.981769E-18   -4.335380E-19   -1.603610E-20   -4.859749E-22   -1.253971E-23   -2.804763E-25
        -5.659636E-27
  23    -1.218110E-28   -6.981142E-27   -3.632859E-25   -1.647716E-23   -6.367669E-22   -2.061002E-20   -5.310023E-19   -5.954362E-18    6.713719E-16    8.148321E-14
         5.755518E-12    2.842384E-10    9.861049E-09    2.297210E-07    3.237484E-06    2.020710E-05    3.237484E-06    2.297210E-07    9.861049E-09    2.842384E-10
         5.755520E-12    8.148290E-14    6.712280E-16   -5.975466E-18   -5.325472E-19   -2.068607E-20   -6.395790E-22   -1.656024E-23   -3.653347E-25   -7.024839E-27
        -1.226545E-28
  24    -1.915479E-30   -1.291000E-28   -7.933606E-27   -4.263374E-25   -1.951048E-23   -7.447189E-22   -2.332188E-20   -5.674414E-19   -5.953487E-18    5.502906E-16
         5.675031E-14    3.271148E-12    1.265087E-10    3.241602E-09    4.977045E-08    3.358825E-07    4.977045E-08    3.241602E-09    1.265087E-10    3.271148E-12
         5.675007E-14    5.501714E-16   -5.975466E-18   -5.693440E-19   -2.342744E-20   -7.489559E-22   -1.964206E-23   -4.296493E-25   -8.003761E-27   -1.303922E-28
        -1.937093E-30
  25    -2.162279E-32   -1.756061E-30   -1.302348E-28   -8.439377E-27   -4.639974E-25   -2.113436E-23   -7.836341E-22   -2.331834E-20   -5.308850E-19   -5.966455E-18
         2.923275E-16    2.683220E-14    1.223033E-12    3.455866E-11    5.713080E-10    4.113814E-09    5.713080E-10    3.455866E-11    1.223032E-12    2.683202E-14
         2.922626E-16   -5.981769E-18   -5.325472E-19   -2.342744E-20   -7.885748E-22   -2.130076E-23   -4.683803E-25   -8.533300E-27   -1.319296E-28   -1.782680E-30
        -2.200323E-32
  26    -1.686387E-34   -1.718962E-32   -1.594443E-30   -1.281078E-28   -8.632740E-27   -4.762390E-25   -2.112983E-23   -7.444600E-22   -2.060217E-20   -4.325173E-19
        -5.309634E-18    8.390567E-17    8.089968E-15    2.788461E-13    5.070566E-12    3.889714E-11    5.070565E-12    2.788456E-13    8.089851E-15    8.388084E-17
        -5.316709E-18   -4.335380E-19   -2.068607E-20   -7.489559E-22   -2.130076E-23   -4.811144E-25   -8.741466E-27   -1.300699E-28   -1.624064E-30   -1.757749E-32
        -1.732719E-34
  27    -8.279144E-37   -1.152177E-34   -1.427713E-32   -1.490132E-30   -1.268209E-28   -8.630297E-27   -4.637781E-25   -1.949944E-23   -6.364146E-22   -1.598893E-20
        -3.023208E-19   -3.778870E-18   -1.989616E-18    1.331085E-15    3.301050E-14    2.838610E-13    3.301044E-14    1.331057E-15   -1.997009E-18   -3.781042E-18
        -3.027512E-19   -1.603610E-20   -6.395790E-22   -1.964206E-23   -4.683803E-25   -8.741466E-27   -1.288992E-28   -1.521091E-30   -1.465655E-32   -1.192106E-34
        -8.664292E-37
  28    -1.870209E-39   -4.678373E-37   -8.987420E-35   -1.324471E-32   -1.489551E-30   -1.280263E-28   -8.432877E-27   -4.259966E-25   -1.646525E-23   -4.842962E-22
        -1.075323E-20   -1.777842E-19   -2.082882E-18   -1.310517E-17    5.250862E-17    1.140337E-15    5.250591E-17   -1.310658E-17   -2.083352E-18   -1.779058E-19
        -1.077198E-20   -4.859749E-22   -1.656024E-23   -4.296493E-25   -8.533300E-27   -1.300699E-28   -1.521091E-30   -1.362155E-32   -9.345584E-35   -4.963348E-37
        -2.079682E-39
  29     2.575368E-42   -6.724638E-40   -3.642142E-37   -8.981695E-35   -1.426387E-32   -1.592730E-30   -1.300899E-28   -7.925269E-27   -3.629609E-25   -1.249087E-23
        -3.209069E-22   -6.103123E-21   -8.573407E-20   -8.791197E-19   -5.525305E-18   -1.712270E-17   -5.525433E-18   -8.791936E-19   -8.575746E-20   -6.108175E-21
        -3.215503E-22   -1.253971E-23   -3.653347E-25   -8.003761E-27   -1.319296E-28   -1.624064E-30   -1.465655E-32   -9.345584E-35   -3.893579E-37   -8.082483E-40
         1.896261E-42
  30     2.102655E-44    3.006911E-42   -6.705094E-40   -4.669743E-37   -1.150212E-34   -1.716169E-32   -1.753411E-30   -1.289287E-28   -6.973646E-27   -2.792639E-25
        -8.245207E-24   -1.777053E-22   -2.784205E-21   -3.186443E-20   -2.385413E-19   -1.079302E-18   -2.385468E-19   -3.186757E-20   -2.785114E-21   -1.778743E-22
        -8.263653E-24   -2.804763E-25   -7.024839E-27   -1.303922E-28   -1.782680E-30   -1.757749E-32   -1.192106E-34   -4.963348E-37   -8.082483E-40    2.588966E-42
         1.997167E-44
  31      0.00000        2.104425E-44    2.595207E-42   -1.860982E-39   -8.255104E-37   -1.682454E-34   -2.158016E-32   -1.912354E-30   -1.216567E-28   -5.632607E-27
        -1.894794E-25   -4.580479E-24   -7.898401E-23   -9.815190E-22   -8.243128E-21   -4.474257E-20   -8.243332E-21   -9.816307E-22   -7.901390E-23   -4.585391E-24
        -1.899488E-25   -5.659636E-27   -1.226545E-28   -1.937093E-30   -2.200323E-32   -1.732719E-34   -8.664292E-37   -2.079682E-39    1.896261E-42    1.997167E-44
          0.00000    

 CONCENTRATION WILL BE SAVED ON UNIT 1030 AT END OF TIME STEP   58, STRESS PERIOD    2


  MASS BUDGET FOR ENTIRE MODEL AT END OF TIME STEP   58, STRESS PERIOD   2
  ---------------------------------------------------------------------------------------------------

     CUMULATIVE MASS      M       RATES FOR THIS TIME STEP      M/T          PACKAGE NAME    
     ------------------                 ------------------------                     ----------------

           IN:                                      IN:
           ---                                      ---
     STORAGE-AQUEOUS =  6839443580.6574       STORAGE-AQUEOUS =     1478759.8272     MST                              
                 WEL =  7884000000.0000                   WEL =           0.0000     SSM_WEL-1                        
                 CHD =           0.0000                   CHD =           0.0000     SSM_CHD-1                        

            TOTAL IN = 14723443580.6574              TOTAL IN =     1478759.8272

          OUT:                                     OUT:
          ----                                     ----
     STORAGE-AQUEOUS =  7888706411.8490       STORAGE-AQUEOUS =          47.8679     MST                              
                 WEL =  6834737168.8084                   WEL =     1478711.9593     SSM_WEL-1                        
                 CHD =       7.5562E-18                   CHD =           0.0000     SSM_CHD-1                        

           TOTAL OUT = 14723443580.6575             TOTAL OUT =     1478759.8272

            IN - OUT =      -9.9182E-05              IN - OUT =      -3.9814E-08

 PERCENT DISCREPANCY =          -0.00     PERCENT DISCREPANCY =          -0.00




         TIME SUMMARY AT END OF TIME STEP   58 IN STRESS PERIOD    2
                    SECONDS     MINUTES      HOURS       DAYS        YEARS
                    -----------------------------------------------------------
   TIME STEP LENGTH 2.16991E+06  36165.      602.75      25.115     6.87602E-02
 STRESS PERIOD TIME 1.25855E+08 2.09758E+06  34960.      1456.7      3.9881    
         TOTAL TIME 2.04695E+08 3.41158E+06  56860.      2369.2      6.4864    


end timestep


start timestep kper="2" kstp="59" mode="normal"

 UBDSV1 SAVING  STORAGE-AQUEOUS ON UNIT   1029 AT TIME STEP     59, STRESS PERIOD      2
 UBDSV1 SAVING     FLOW-JA-FACE ON UNIT   1029 AT TIME STEP     59, STRESS PERIOD      2
 UBDSV06 SAVING  SOURCE-SINK MIX IN MODEL GWT_P06-MF6      PACKAGE GWT_P06-MF6     CONNECTED TO MODEL GWT_P06-MF6      PACKAGE SSM              ON UNIT   1029 AT TIME STEP     59, STRESS PERIOD      2
1
  CONCENTRATION IN LAYER   1 AT END OF TIME STEP  59 IN STRESS PERIOD    2
  ---------------------------------------------------------------------------

                1               2               3               4               5               6               7               8               9              10
               11              12              13              14              15              16              17              18              19              20
               21              22              23              24              25              26              27              28              29              30
               31
 ................................................................................................................................................................................................................................................................................................................................................................................................................................................................................................................
   1      0.00000        2.020928E-44    1.505156E-42   -2.325162E-39   -9.326853E-37   -1.839930E-34   -2.316352E-32   -2.025300E-30   -1.274691E-28   -5.849445E-27
        -1.953339E-25   -4.694865E-24   -8.061774E-23   -9.982950E-22   -8.353812E-21   -4.507569E-20   -8.353627E-21   -9.982015E-22   -8.059417E-23   -4.691035E-24
        -1.949577E-25   -5.826895E-27   -1.266021E-28   -2.002977E-30   -2.276865E-32   -1.791596E-34   -8.922942E-37   -2.104226E-39    2.226274E-42    2.133983E-44
          0.00000    
   2     2.020928E-44    2.419318E-42   -9.330500E-40   -5.355864E-37   -1.265648E-34   -1.849628E-32   -1.863458E-30   -1.355259E-28   -7.263344E-27   -2.885806E-25
        -8.463968E-24   -1.814637E-22   -2.831870E-21   -3.228599E-20   -2.406565E-19   -1.081214E-18   -2.406516E-19   -3.228336E-20   -2.831151E-21   -1.813316E-22
        -8.449126E-24   -2.875641E-25   -7.218597E-27   -1.341969E-28   -1.835959E-30   -1.809385E-32   -1.224035E-34   -5.057474E-37   -7.901106E-40    2.862443E-42
         2.135898E-44
   3     1.505156E-42   -9.330500E-40   -4.207784E-37   -9.921047E-35   -1.541496E-32   -1.696913E-30   -1.370942E-28   -8.275827E-27   -3.759890E-25   -1.284844E-23
        -3.281214E-22   -6.209711E-21   -8.681526E-20   -8.828997E-19   -5.446678E-18   -1.618140E-17   -5.446564E-18   -8.828374E-19   -8.679666E-20   -6.205748E-21
        -3.276014E-22   -1.280723E-23   -3.738986E-25   -8.203948E-27   -1.353506E-28   -1.666317E-30   -1.502147E-32   -9.548051E-35   -3.944690E-37   -7.880373E-40
         2.247525E-42
   4    -2.325162E-39   -5.355864E-37   -9.921047E-35   -1.432314E-32   -1.588761E-30   -1.351205E-28   -8.821925E-27   -4.421870E-25   -1.697124E-23   -4.960486E-22
        -1.095137E-20   -1.798108E-19   -2.071106E-18   -1.199338E-17    7.578888E-17    1.322794E-15    7.579127E-17   -1.199219E-17   -2.070728E-18   -1.797148E-19
        -1.093614E-20   -4.946213E-22   -1.688678E-23   -4.388060E-25   -8.725667E-27   -1.331018E-28   -1.556788E-30   -1.393241E-32   -9.542060E-35   -5.048383E-37
        -2.094425E-39
   5    -9.326853E-37   -1.265648E-34   -1.541496E-32   -1.588761E-30   -1.338859E-28   -9.035767E-27   -4.820108E-25   -2.013054E-23   -6.529452E-22   -1.630210E-20
        -3.052241E-19   -3.681590E-18    4.731617E-18    1.535691E-15    3.642914E-14    3.081515E-13    3.642919E-14    1.535715E-15    4.737774E-18   -3.679854E-18
        -3.048714E-19   -1.626159E-20   -6.500968E-22   -1.999672E-23   -4.775354E-25   -8.924322E-27   -1.317476E-28   -1.556186E-30   -1.500767E-32   -1.221978E-34
        -8.897591E-37
   6    -1.839930E-34   -1.849628E-32   -1.696913E-30   -1.351205E-28   -9.035767E-27   -4.950942E-25   -2.183033E-23   -7.646499E-22   -2.102490E-20   -4.357228E-19
        -4.994553E-18    1.074591E-16    9.067018E-15    3.044687E-13    5.463014E-12    4.149359E-11    5.463014E-12    3.044691E-13    9.067120E-15    1.074798E-16
        -4.988673E-18   -4.348345E-19   -2.094817E-20   -7.603571E-22   -2.166106E-23   -4.901154E-25   -8.921814E-27   -1.330177E-28   -1.664542E-30   -1.806476E-32
        -1.787476E-34
   7    -2.316352E-32   -1.863458E-30   -1.370942E-28   -8.821925E-27   -4.820108E-25   -2.183033E-23   -8.051053E-22   -2.380691E-20   -5.338053E-19   -5.328448E-18
         3.472706E-16    2.974920E-14    1.328309E-12    3.706248E-11    6.065021E-10    4.327319E-09    6.065021E-10    3.706248E-11    1.328310E-12    2.974937E-14
         3.473266E-16   -5.314866E-18   -5.322540E-19   -2.370041E-20   -8.000990E-22   -2.165645E-23   -4.773112E-25   -8.718994E-27   -1.352013E-28   -1.833216E-30
        -2.272426E-32
   8    -2.025300E-30   -1.355259E-28   -8.275827E-27   -4.421870E-25   -2.013054E-23   -7.646499E-22   -2.380691E-20   -5.700857E-19   -5.060283E-18    6.400161E-16
         6.260009E-14    3.541199E-12    1.352096E-10    3.426798E-09    5.209604E-08    3.483863E-07    5.209604E-08    3.426798E-09    1.352096E-10    3.541199E-12
         6.260035E-14    6.401252E-16   -5.039216E-18   -5.681753E-19   -2.369684E-20   -7.600947E-22   -1.998548E-23   -4.384578E-25   -8.195393E-27   -1.340205E-28
        -1.999743E-30
   9    -1.274691E-28   -7.263344E-27   -3.759890E-25   -1.697124E-23   -6.529452E-22   -2.102490E-20   -5.338053E-19   -5.060283E-18    7.767392E-16    8.968957E-14
         6.219125E-12    3.030564E-10    1.038909E-08    2.393753E-07    3.340202E-06    2.066030E-05    3.340202E-06    2.393753E-07    1.038909E-08    3.030565E-10
         6.219124E-12    8.968989E-14    7.768813E-16   -5.038344E-18   -5.321363E-19   -2.094026E-20   -6.497398E-22   -1.687465E-23   -3.735667E-25   -7.210912E-27
        -1.264433E-28
  10    -5.849445E-27   -2.885806E-25   -1.284844E-23   -4.960486E-22   -1.630210E-20   -4.357228E-19   -5.328448E-18    6.400161E-16    8.968957E-14    7.474072E-12
         4.467570E-10    1.933039E-08    5.888974E-07    1.205484E-05    1.507487E-04    8.448369E-04    1.507487E-04    1.205484E-05    5.888974E-07    1.933039E-08
         4.467571E-10    7.474070E-12    8.968988E-14    6.401338E-16   -5.313159E-18   -4.346980E-19   -1.625453E-20   -4.943488E-22   -1.279880E-23   -2.873442E-25
        -5.821784E-27
  11    -1.953339E-25   -8.463968E-24   -3.281214E-22   -1.095137E-20   -3.052241E-19   -4.994553E-18    3.472706E-16    6.260009E-14    6.219125E-12    4.467570E-10
         2.361084E-08    8.945791E-07    2.348516E-05    4.108590E-04    4.432669E-03    2.180534E-02    4.432669E-03    4.108590E-04    2.348516E-05    8.945791E-07
         2.361084E-08    4.467571E-10    6.219123E-12    6.260032E-14    3.473347E-16   -4.987484E-18   -3.047918E-19   -1.093247E-20   -3.274702E-22   -8.445232E-24
        -1.948556E-25
  12    -4.694865E-24   -1.814637E-22   -6.209711E-21   -1.798108E-19   -3.681590E-18    1.074591E-16    2.974920E-14    3.541199E-12    3.030564E-10    1.933039E-08
         8.945791E-07    2.885418E-05    6.238192E-04    8.785706E-03    7.693212E-02    0.315602        7.693212E-02    8.785706E-03    6.238192E-04    2.885418E-05
         8.945791E-07    1.933039E-08    3.030565E-10    3.541199E-12    2.974937E-14    1.074838E-16   -3.679415E-18   -1.796885E-19   -6.204616E-21   -1.812927E-22
        -4.689877E-24
  13    -8.061774E-23   -2.831870E-21   -8.681526E-20   -2.071106E-18    4.731617E-18    9.067018E-15    1.328309E-12    1.352096E-10    1.038909E-08    5.888974E-07
         2.348516E-05    6.238192E-04    1.049669E-02    0.109167        0.705895         2.23186        0.705895        0.109167        1.049669E-02    6.238192E-04
         2.348516E-05    5.888974E-07    1.038909E-08    1.352096E-10    1.328310E-12    9.067134E-15    4.738998E-18   -2.070635E-18   -8.679174E-20   -2.830953E-21
        -8.058748E-23
  14    -9.982950E-22   -3.228599E-20   -8.828997E-19   -1.199338E-17    1.535691E-15    3.044687E-13    3.706248E-11    3.426798E-09    2.393753E-07    1.205484E-05
         4.108590E-04    8.785706E-03    0.109167        0.763345         3.23893         7.24063         3.23893        0.763345        0.109167        8.785706E-03
         4.108590E-04    1.205484E-05    2.393753E-07    3.426798E-09    3.706248E-11    3.044691E-13    1.535719E-15   -1.199197E-17   -8.828254E-19   -3.228284E-20
        -9.981822E-22
  15    -8.353812E-21   -2.406565E-19   -5.446678E-18    7.578888E-17    3.642914E-14    5.463014E-12    6.065021E-10    5.209604E-08    3.340202E-06    1.507487E-04
         4.432669E-03    7.693212E-02    0.705895         3.23893         9.07794         12.6098         9.07794         3.23893        0.705895        7.693212E-02
         4.432669E-03    1.507487E-04    3.340202E-06    5.209604E-08    6.065021E-10    5.463014E-12    3.642920E-14    7.579159E-17   -5.446550E-18   -2.406510E-19
        -8.353605E-21
  16    -4.507569E-20   -1.081214E-18   -1.618140E-17    1.322794E-15    3.081515E-13    4.149359E-11    4.327319E-09    3.483863E-07    2.066030E-05    8.448369E-04
         2.180534E-02    0.315602         2.23186         7.24063         12.6098         16.4914         12.6098         7.24063         2.23186        0.315602    
         2.180534E-02    8.448369E-04    2.066030E-05    3.483863E-07    4.327319E-09    4.149359E-11    3.081515E-13    1.322794E-15   -1.618140E-17   -1.081214E-18
        -4.507569E-20
  17    -8.353627E-21   -2.406516E-19   -5.446564E-18    7.579127E-17    3.642919E-14    5.463014E-12    6.065021E-10    5.209604E-08    3.340202E-06    1.507487E-04
         4.432669E-03    7.693212E-02    0.705895         3.23893         9.07794         12.6098         9.07794         3.23893        0.705895        7.693212E-02
         4.432669E-03    1.507487E-04    3.340202E-06    5.209604E-08    6.065021E-10    5.463014E-12    3.642914E-14    7.578889E-17   -5.446678E-18   -2.406565E-19
        -8.353812E-21
  18    -9.982015E-22   -3.228336E-20   -8.828374E-19   -1.199219E-17    1.535715E-15    3.044691E-13    3.706248E-11    3.426798E-09    2.393753E-07    1.205484E-05
         4.108590E-04    8.785706E-03    0.109167        0.763345         3.23893         7.24063         3.23893        0.763345        0.109167        8.785706E-03
         4.108590E-04    1.205484E-05    2.393753E-07    3.426798E-09    3.706248E-11    3.044687E-13    1.535691E-15   -1.199338E-17   -8.828997E-19   -3.228599E-20
        -9.982950E-22
  19    -8.059417E-23   -2.831151E-21   -8.679666E-20   -2.070728E-18    4.737774E-18    9.067120E-15    1.328310E-12    1.352096E-10    1.038909E-08    5.888974E-07
         2.348516E-05    6.238192E-04    1.049669E-02    0.109167        0.705895         2.23186        0.705895        0.109167        1.049669E-02    6.238192E-04
         2.348516E-05    5.888974E-07    1.038909E-08    1.352096E-10    1.328309E-12    9.067018E-15    4.731618E-18   -2.071106E-18   -8.681526E-20   -2.831870E-21
        -8.061774E-23
  20    -4.691035E-24   -1.813316E-22   -6.205748E-21   -1.797148E-19   -3.679854E-18    1.074798E-16    2.974937E-14    3.541199E-12    3.030565E-10    1.933039E-08
         8.945791E-07    2.885418E-05    6.238192E-04    8.785706E-03    7.693212E-02    0.315602        7.693212E-02    8.785706E-03    6.238192E-04    2.885418E-05
         8.945791E-07    1.933039E-08    3.030564E-10    3.541199E-12    2.974920E-14    1.074591E-16   -3.681590E-18   -1.798108E-19   -6.209711E-21   -1.814637E-22
        -4.694865E-24
  21    -1.949577E-25   -8.449126E-24   -3.276014E-22   -1.093614E-20   -3.048714E-19   -4.988673E-18    3.473266E-16    6.260035E-14    6.219124E-12    4.467571E-10
         2.361084E-08    8.945791E-07    2.348516E-05    4.108590E-04    4.432669E-03    2.180534E-02    4.432669E-03    4.108590E-04    2.348516E-05    8.945791E-07
         2.361084E-08    4.467570E-10    6.219125E-12    6.260009E-14    3.472706E-16   -4.994553E-18   -3.052241E-19   -1.095137E-20   -3.281214E-22   -8.463968E-24
        -1.953339E-25
  22    -5.826895E-27   -2.875641E-25   -1.280723E-23   -4.946213E-22   -1.626159E-20   -4.348345E-19   -5.314866E-18    6.401252E-16    8.968989E-14    7.474070E-12
         4.467571E-10    1.933039E-08    5.888974E-07    1.205484E-05    1.507487E-04    8.448369E-04    1.507487E-04    1.205484E-05    5.888974E-07    1.933039E-08
         4.467570E-10    7.474072E-12    8.968957E-14    6.400161E-16   -5.328448E-18   -4.357228E-19   -1.630210E-20   -4.960486E-22   -1.284844E-23   -2.885806E-25
        -5.849445E-27
  23    -1.266021E-28   -7.218597E-27   -3.738986E-25   -1.688678E-23   -6.500968E-22   -2.094817E-20   -5.322540E-19   -5.039216E-18    7.768813E-16    8.968988E-14
         6.219123E-12    3.030565E-10    1.038909E-08    2.393753E-07    3.340202E-06    2.066030E-05    3.340202E-06    2.393753E-07    1.038909E-08    3.030564E-10
         6.219125E-12    8.968957E-14    7.767392E-16   -5.060283E-18   -5.338053E-19   -2.102490E-20   -6.529452E-22   -1.697124E-23   -3.759890E-25   -7.263344E-27
        -1.274691E-28
  24    -2.002977E-30   -1.341969E-28   -8.203948E-27   -4.388060E-25   -1.999672E-23   -7.603571E-22   -2.370041E-20   -5.681753E-19   -5.038344E-18    6.401338E-16
         6.260032E-14    3.541199E-12    1.352096E-10    3.426798E-09    5.209604E-08    3.483863E-07    5.209604E-08    3.426798E-09    1.352096E-10    3.541199E-12
         6.260009E-14    6.400161E-16   -5.060283E-18   -5.700857E-19   -2.380691E-20   -7.646499E-22   -2.013054E-23   -4.421870E-25   -8.275827E-27   -1.355259E-28
        -2.025300E-30
  25    -2.276865E-32   -1.835959E-30   -1.353506E-28   -8.725667E-27   -4.775354E-25   -2.166106E-23   -8.000990E-22   -2.369684E-20   -5.321363E-19   -5.313159E-18
         3.473347E-16    2.974937E-14    1.328310E-12    3.706248E-11    6.065021E-10    4.327319E-09    6.065021E-10    3.706248E-11    1.328309E-12    2.974920E-14
         3.472706E-16   -5.328448E-18   -5.338053E-19   -2.380691E-20   -8.051053E-22   -2.183033E-23   -4.820108E-25   -8.821925E-27   -1.370942E-28   -1.863458E-30
        -2.316352E-32
  26    -1.791596E-34   -1.809385E-32   -1.666317E-30   -1.331018E-28   -8.924322E-27   -4.901154E-25   -2.165645E-23   -7.600947E-22   -2.094026E-20   -4.346980E-19
        -4.987484E-18    1.074838E-16    9.067134E-15    3.044691E-13    5.463014E-12    4.149359E-11    5.463014E-12    3.044687E-13    9.067018E-15    1.074591E-16
        -4.994553E-18   -4.357228E-19   -2.102490E-20   -7.646499E-22   -2.183033E-23   -4.950942E-25   -9.035767E-27   -1.351205E-28   -1.696913E-30   -1.849628E-32
        -1.839930E-34
  27    -8.922942E-37   -1.224035E-34   -1.502147E-32   -1.556788E-30   -1.317476E-28   -8.921814E-27   -4.773112E-25   -1.998548E-23   -6.497398E-22   -1.625453E-20
        -3.047918E-19   -3.679415E-18    4.738998E-18    1.535719E-15    3.642920E-14    3.081515E-13    3.642914E-14    1.535691E-15    4.731618E-18   -3.681590E-18
        -3.052241E-19   -1.630210E-20   -6.529452E-22   -2.013054E-23   -4.820108E-25   -9.035767E-27   -1.338859E-28   -1.588761E-30   -1.541496E-32   -1.265648E-34
        -9.326853E-37
  28    -2.104226E-39   -5.057474E-37   -9.548051E-35   -1.393241E-32   -1.556186E-30   -1.330177E-28   -8.718994E-27   -4.384578E-25   -1.687465E-23   -4.943488E-22
        -1.093247E-20   -1.796885E-19   -2.070635E-18   -1.199197E-17    7.579159E-17    1.322794E-15    7.578889E-17   -1.199338E-17   -2.071106E-18   -1.798108E-19
        -1.095137E-20   -4.960486E-22   -1.697124E-23   -4.421870E-25   -8.821925E-27   -1.351205E-28   -1.588761E-30   -1.432314E-32   -9.921047E-35   -5.355864E-37
        -2.325162E-39
  29     2.226274E-42   -7.901106E-40   -3.944690E-37   -9.542060E-35   -1.500767E-32   -1.664542E-30   -1.352013E-28   -8.195393E-27   -3.735667E-25   -1.279880E-23
        -3.274702E-22   -6.204616E-21   -8.679174E-20   -8.828254E-19   -5.446550E-18   -1.618140E-17   -5.446678E-18   -8.828997E-19   -8.681526E-20   -6.209711E-21
        -3.281214E-22   -1.284844E-23   -3.759890E-25   -8.275827E-27   -1.370942E-28   -1.696913E-30   -1.541496E-32   -9.921047E-35   -4.207784E-37   -9.330500E-40
         1.505156E-42
  30     2.133983E-44    2.862443E-42   -7.880373E-40   -5.048383E-37   -1.221978E-34   -1.806476E-32   -1.833216E-30   -1.340205E-28   -7.210912E-27   -2.873442E-25
        -8.445232E-24   -1.812927E-22   -2.830953E-21   -3.228284E-20   -2.406510E-19   -1.081214E-18   -2.406565E-19   -3.228599E-20   -2.831870E-21   -1.814637E-22
        -8.463968E-24   -2.885806E-25   -7.263344E-27   -1.355259E-28   -1.863458E-30   -1.849628E-32   -1.265648E-34   -5.355864E-37   -9.330500E-40    2.419318E-42
         2.020928E-44
  31      0.00000        2.135898E-44    2.247525E-42   -2.094425E-39   -8.897591E-37   -1.787476E-34   -2.272426E-32   -1.999743E-30   -1.264433E-28   -5.821784E-27
        -1.948556E-25   -4.689877E-24   -8.058748E-23   -9.981822E-22   -8.353605E-21   -4.507569E-20   -8.353812E-21   -9.982950E-22   -8.061774E-23   -4.694865E-24
        -1.953339E-25   -5.849445E-27   -1.274691E-28   -2.025300E-30   -2.316352E-32   -1.839930E-34   -9.326853E-37   -2.325162E-39    1.505156E-42    2.020928E-44
          0.00000    

 CONCENTRATION WILL BE SAVED ON UNIT 1030 AT END OF TIME STEP   59, STRESS PERIOD    2


  MASS BUDGET FOR ENTIRE MODEL AT END OF TIME STEP   59, STRESS PERIOD   2
  ---------------------------------------------------------------------------------------------------

     CUMULATIVE MASS      M       RATES FOR THIS TIME STEP      M/T          PACKAGE NAME    
     ------------------                 ------------------------                     ----------------

           IN:                                      IN:
           ---                                      ---
     STORAGE-AQUEOUS =  6875229527.5365       STORAGE-AQUEOUS =     1424901.6292     MST                              
                 WEL =  7884000000.0000                   WEL =           0.0000     SSM_WEL-1                        
                 CHD =           0.0000                   CHD =           0.0000     SSM_CHD-1                        

            TOTAL IN = 14759229527.5365              TOTAL IN =     1424901.6292

          OUT:                                     OUT:
          ----                                     ----
     STORAGE-AQUEOUS =  7888707504.6929       STORAGE-AQUEOUS =          43.5141     MST                              
                 WEL =  6870522022.8437                   WEL =     1424858.1150     SSM_WEL-1                        
                 CHD =       7.5562E-18                   CHD =           0.0000     SSM_CHD-1                        

           TOTAL OUT = 14759229527.5366             TOTAL OUT =     1424901.6292

            IN - OUT =      -1.0109E-04              IN - OUT =      -3.8184E-08

 PERCENT DISCREPANCY =          -0.00     PERCENT DISCREPANCY =          -0.00




         TIME SUMMARY AT END OF TIME STEP   59 IN STRESS PERIOD    2
                    SECONDS     MINUTES      HOURS       DAYS        YEARS
                    -----------------------------------------------------------
   TIME STEP LENGTH 2.16991E+06  36165.      602.75      25.115     6.87602E-02
 STRESS PERIOD TIME 1.28025E+08 2.13374E+06  35562.      1481.8      4.0569    
         TOTAL TIME 2.06865E+08 3.44774E+06  57462.      2394.3      6.5551    


end timestep


start timestep kper="2" kstp="60" mode="normal"

 UBDSV1 SAVING  STORAGE-AQUEOUS ON UNIT   1029 AT TIME STEP     60, STRESS PERIOD      2
 UBDSV1 SAVING     FLOW-JA-FACE ON UNIT   1029 AT TIME STEP     60, STRESS PERIOD      2
 UBDSV06 SAVING  SOURCE-SINK MIX IN MODEL GWT_P06-MF6      PACKAGE GWT_P06-MF6     CONNECTED TO MODEL GWT_P06-MF6      PACKAGE SSM              ON UNIT   1029 AT TIME STEP     60, STRESS PERIOD      2
1
  CONCENTRATION IN LAYER   1 AT END OF TIME STEP  60 IN STRESS PERIOD    2
  ---------------------------------------------------------------------------

                1               2               3               4               5               6               7               8               9              10
               11              12              13              14              15              16              17              18              19              20
               21              22              23              24              25              26              27              28              29              30
               31
 ................................................................................................................................................................................................................................................................................................................................................................................................................................................................................................................
   1      0.00000        2.040499E-44    1.067287E-42   -2.589176E-39   -1.002964E-36   -1.952677E-34   -2.437555E-32   -2.116901E-30   -1.324420E-28   -6.044515E-27
        -2.008433E-25   -4.806434E-24   -8.224658E-23   -1.015150E-21   -8.464918E-21   -4.540733E-20   -8.464732E-21   -1.015056E-21   -8.222272E-23   -4.802546E-24
        -2.004600E-25   -6.021443E-27   -1.315509E-28   -2.093849E-30   -2.396579E-32   -1.902268E-34   -9.606172E-37   -2.356232E-39    1.832660E-42    2.161580E-44
          0.00000    
   2     2.040499E-44    2.225883E-42   -1.067516E-39   -5.772112E-37   -1.342951E-34   -1.945575E-32   -1.947339E-30   -1.408296E-28   -7.508544E-27   -2.968746E-25
        -8.668125E-24   -1.851082E-22   -2.879110E-21   -3.270422E-20   -2.426954E-19   -1.082483E-18   -2.426904E-19   -3.270157E-20   -2.878384E-21   -1.849745E-22
        -8.653051E-24   -2.958381E-25   -7.462726E-27   -1.394628E-28   -1.918937E-30   -1.903828E-32   -1.299591E-34   -5.459752E-37   -9.170908E-40    2.695505E-42
         2.163650E-44
   3     1.067287E-42   -1.067516E-39   -4.540954E-37   -1.052571E-34   -1.620664E-32   -1.772543E-30   -1.424295E-28   -8.555572E-27   -3.868957E-25   -1.316316E-23
        -3.347920E-22   -6.312074E-21   -8.785682E-20   -8.857685E-19   -5.352320E-18   -1.512583E-17   -5.352205E-18   -8.857058E-19   -8.783810E-20   -6.308077E-21
        -3.342657E-22   -1.312129E-23   -3.847628E-25   -8.481935E-27   -1.406360E-28   -1.740945E-30   -1.579864E-32   -1.013734E-34   -4.265724E-37   -9.148922E-40
         1.855410E-42
   4    -2.589176E-39   -5.772112E-37   -1.052571E-34   -1.505539E-32   -1.659001E-30   -1.403373E-28   -9.118696E-27   -4.550232E-25   -1.739031E-23   -5.062726E-22
        -1.113158E-20   -1.816233E-19   -2.053729E-18   -1.073452E-17    1.012105E-16    1.519372E-15    1.012129E-16   -1.073331E-17   -2.053349E-18   -1.815269E-19
        -1.111621E-20   -5.048275E-22   -1.730444E-23   -4.515722E-25   -9.020056E-27   -1.382606E-28   -1.625986E-30   -1.465032E-32   -1.013107E-34   -5.450179E-37
        -2.345826E-39
   5    -1.002964E-36   -1.342951E-34   -1.620664E-32   -1.659001E-30   -1.390364E-28   -9.338360E-27   -4.959663E-25   -2.062866E-23   -6.665060E-22   -1.656804E-20
        -3.073997E-19   -3.562839E-18    1.216834E-17    1.757721E-15    4.009595E-14    3.339540E-13    4.009600E-14    1.757744E-15    1.217449E-17   -3.561101E-18
        -3.070455E-19   -1.652718E-20   -6.636210E-22   -2.049256E-23   -4.913970E-25   -9.224143E-27   -1.368368E-28   -1.625362E-30   -1.578427E-32   -1.297438E-34
        -9.579450E-37
   6    -1.952677E-34   -1.945575E-32   -1.772543E-30   -1.403373E-28   -9.338360E-27   -5.094074E-25   -2.237037E-23   -7.805667E-22   -2.136201E-20   -4.372639E-19
        -4.623092E-18    1.333583E-16    1.012304E-14    3.318396E-13    5.877990E-12    4.421284E-11    5.877991E-12    3.318399E-13    1.012314E-14    1.333789E-16
        -4.617217E-18   -4.363719E-19   -2.128462E-20   -7.762178E-22   -2.219819E-23   -5.043236E-25   -9.221568E-27   -1.381740E-28   -1.739107E-30   -1.900800E-32
        -1.897953E-34
   7    -2.437555E-32   -1.947339E-30   -1.424295E-28   -9.118696E-27   -4.959663E-25   -2.237037E-23   -8.218680E-22   -2.418332E-20   -5.340598E-19   -4.585093E-18
         4.074751E-16    3.289272E-14    1.440384E-12    3.969852E-11    6.431687E-10    4.547548E-09    6.431687E-10    3.969852E-11    1.440385E-12    3.289290E-14
         4.075306E-16   -4.571531E-18   -5.325022E-19   -2.407588E-20   -8.167957E-22   -2.219349E-23   -4.911678E-25   -9.013206E-27   -1.404820E-28   -1.916096E-30
        -2.391959E-32
   8    -2.116901E-30   -1.408296E-28   -8.555572E-27   -4.550232E-25   -2.062866E-23   -7.805667E-22   -2.418332E-20   -5.696672E-19   -4.024247E-18    7.381567E-16
         6.889187E-14    3.827929E-12    1.443358E-10    3.618783E-09    5.448031E-08    3.610687E-07    5.448031E-08    3.618783E-09    1.443358E-10    3.827929E-12
         6.889213E-14    7.382644E-16   -4.003220E-18   -5.677491E-19   -2.407228E-20   -7.759518E-22   -2.048113E-23   -4.512164E-25   -8.473159E-27   -1.392811E-28
        -2.090502E-30
   9    -1.324420E-28   -7.508544E-27   -3.868957E-25   -1.739031E-23   -6.665060E-22   -2.136201E-20   -5.340598E-19   -4.024247E-18    8.919215E-16    9.850733E-14
         6.710526E-12    3.227387E-10    1.093415E-08    2.492144E-07    3.443595E-06    2.111055E-05    3.443595E-06    2.492144E-07    1.093415E-08    3.227387E-10
         6.710525E-12    9.850764E-14    8.920618E-16   -4.002350E-18   -5.323840E-19   -2.127663E-20   -6.632593E-22   -1.729211E-23   -3.844239E-25   -7.454849E-27
        -1.313874E-28
  10    -6.044515E-27   -2.968746E-25   -1.316316E-23   -5.062726E-22   -1.656804E-20   -4.372639E-19   -4.585093E-18    7.381567E-16    9.850733E-14    8.059838E-12
         4.751779E-10    2.029916E-08    6.109668E-07    1.236854E-05    1.531647E-04    8.509174E-04    1.531647E-04    1.236854E-05    6.109668E-07    2.029916E-08
         4.751779E-10    8.059836E-12    9.850763E-14    7.382729E-16   -4.569829E-18   -4.362349E-19   -1.652005E-20   -5.045515E-22   -1.311272E-23   -2.956138E-25
        -6.016211E-27
  11    -2.008433E-25   -8.668125E-24   -3.347920E-22   -1.113158E-20   -3.073997E-19   -4.623092E-18    4.074751E-16    6.889187E-14    6.710526E-12    4.751779E-10
         2.477476E-08    9.262990E-07    2.401275E-05    4.153446E-04    4.438056E-03    2.165161E-02    4.438056E-03    4.153446E-04    2.401275E-05    9.262990E-07
         2.477476E-08    4.751779E-10    6.710524E-12    6.889209E-14    4.075385E-16   -4.616030E-18   -3.069656E-19   -1.111251E-20   -3.341329E-22   -8.649097E-24
        -2.003560E-25
  12    -4.806434E-24   -1.851082E-22   -6.312074E-21   -1.816233E-19   -3.562839E-18    1.333583E-16    3.289272E-14    3.827929E-12    3.227387E-10    2.029916E-08
         9.262990E-07    2.946449E-05    6.286668E-04    8.752360E-03    7.593924E-02    0.309251        7.593924E-02    8.752360E-03    6.286668E-04    2.946449E-05
         9.262990E-07    2.029916E-08    3.227387E-10    3.827929E-12    3.289290E-14    1.333828E-16   -3.560662E-18   -1.815005E-19   -6.306935E-21   -1.849351E-22
        -4.801371E-24
  13    -8.224658E-23   -2.879110E-21   -8.785682E-20   -2.053729E-18    1.216834E-17    1.012304E-14    1.440384E-12    1.443358E-10    1.093415E-08    6.109668E-07
         2.401275E-05    6.286668E-04    1.043529E-02    0.107297        0.688278         2.16457        0.688278        0.107297        1.043529E-02    6.286668E-04
         2.401275E-05    6.109668E-07    1.093415E-08    1.443358E-10    1.440385E-12    1.012315E-14    1.217571E-17   -2.053255E-18   -8.783315E-20   -2.878184E-21
        -8.221594E-23
  14    -1.015150E-21   -3.270422E-20   -8.857685E-19   -1.073452E-17    1.757721E-15    3.318396E-13    3.969852E-11    3.618783E-09    2.492144E-07    1.236854E-05
         4.153446E-04    8.752360E-03    0.107297        0.742542         3.13327         6.98794         3.13327        0.742542        0.107297        8.752360E-03
         4.153446E-04    1.236854E-05    2.492144E-07    3.618783E-09    3.969852E-11    3.318400E-13    1.757748E-15   -1.073310E-17   -8.856938E-19   -3.270103E-20
        -1.015036E-21
  15    -8.464918E-21   -2.426954E-19   -5.352320E-18    1.012105E-16    4.009595E-14    5.877990E-12    6.431687E-10    5.448031E-08    3.443595E-06    1.531647E-04
         4.438056E-03    7.593924E-02    0.688278         3.13327         8.76028         12.1566         8.76028         3.13327        0.688278        7.593924E-02
         4.438056E-03    1.531647E-04    3.443595E-06    5.448031E-08    6.431687E-10    5.877991E-12    4.009600E-14    1.012132E-16   -5.352191E-18   -2.426898E-19
        -8.464710E-21
  16    -4.540733E-20   -1.082483E-18   -1.512583E-17    1.519372E-15    3.339540E-13    4.421284E-11    4.547548E-09    3.610687E-07    2.111055E-05    8.509174E-04
         2.165161E-02    0.309251         2.16457         6.98794         12.1566         15.8918         12.1566         6.98794         2.16457        0.309251    
         2.165161E-02    8.509174E-04    2.111055E-05    3.610687E-07    4.547548E-09    4.421284E-11    3.339540E-13    1.519372E-15   -1.512583E-17   -1.082483E-18
        -4.540733E-20
  17    -8.464732E-21   -2.426904E-19   -5.352205E-18    1.012129E-16    4.009600E-14    5.877991E-12    6.431687E-10    5.448031E-08    3.443595E-06    1.531647E-04
         4.438056E-03    7.593924E-02    0.688278         3.13327         8.76028         12.1566         8.76028         3.13327        0.688278        7.593924E-02
         4.438056E-03    1.531647E-04    3.443595E-06    5.448031E-08    6.431687E-10    5.877990E-12    4.009595E-14    1.012105E-16   -5.352320E-18   -2.426954E-19
        -8.464918E-21
  18    -1.015056E-21   -3.270157E-20   -8.857058E-19   -1.073331E-17    1.757744E-15    3.318399E-13    3.969852E-11    3.618783E-09    2.492144E-07    1.236854E-05
         4.153446E-04    8.752360E-03    0.107297        0.742542         3.13327         6.98794         3.13327        0.742542        0.107297        8.752360E-03
         4.153446E-04    1.236854E-05    2.492144E-07    3.618783E-09    3.969852E-11    3.318396E-13    1.757721E-15   -1.073452E-17   -8.857684E-19   -3.270421E-20
        -1.015150E-21
  19    -8.222272E-23   -2.878384E-21   -8.783810E-20   -2.053349E-18    1.217449E-17    1.012314E-14    1.440385E-12    1.443358E-10    1.093415E-08    6.109668E-07
         2.401275E-05    6.286668E-04    1.043529E-02    0.107297        0.688278         2.16457        0.688278        0.107297        1.043529E-02    6.286668E-04
         2.401275E-05    6.109668E-07    1.093415E-08    1.443358E-10    1.440384E-12    1.012304E-14    1.216834E-17   -2.053729E-18   -8.785682E-20   -2.879110E-21
        -8.224658E-23
  20    -4.802546E-24   -1.849745E-22   -6.308077E-21   -1.815269E-19   -3.561101E-18    1.333789E-16    3.289290E-14    3.827929E-12    3.227387E-10    2.029916E-08
         9.262990E-07    2.946449E-05    6.286668E-04    8.752360E-03    7.593924E-02    0.309251        7.593924E-02    8.752360E-03    6.286668E-04    2.946449E-05
         9.262990E-07    2.029916E-08    3.227387E-10    3.827929E-12    3.289272E-14    1.333583E-16   -3.562839E-18   -1.816233E-19   -6.312074E-21   -1.851082E-22
        -4.806434E-24
  21    -2.004600E-25   -8.653051E-24   -3.342657E-22   -1.111621E-20   -3.070455E-19   -4.617217E-18    4.075306E-16    6.889213E-14    6.710525E-12    4.751779E-10
         2.477476E-08    9.262990E-07    2.401275E-05    4.153446E-04    4.438056E-03    2.165161E-02    4.438056E-03    4.153446E-04    2.401275E-05    9.262990E-07
         2.477476E-08    4.751779E-10    6.710526E-12    6.889187E-14    4.074751E-16   -4.623092E-18   -3.073997E-19   -1.113158E-20   -3.347920E-22   -8.668125E-24
        -2.008433E-25
  22    -6.021443E-27   -2.958381E-25   -1.312129E-23   -5.048275E-22   -1.652718E-20   -4.363719E-19   -4.571531E-18    7.382644E-16    9.850764E-14    8.059836E-12
         4.751779E-10    2.029916E-08    6.109668E-07    1.236854E-05    1.531647E-04    8.509174E-04    1.531647E-04    1.236854E-05    6.109668E-07    2.029916E-08
         4.751779E-10    8.059838E-12    9.850733E-14    7.381567E-16   -4.585093E-18   -4.372639E-19   -1.656803E-20   -5.062726E-22   -1.316316E-23   -2.968746E-25
        -6.044515E-27
  23    -1.315509E-28   -7.462726E-27   -3.847628E-25   -1.730444E-23   -6.636210E-22   -2.128462E-20   -5.325022E-19   -4.003220E-18    8.920618E-16    9.850763E-14
         6.710524E-12    3.227387E-10    1.093415E-08    2.492144E-07    3.443595E-06    2.111055E-05    3.443595E-06    2.492144E-07    1.093415E-08    3.227387E-10
         6.710526E-12    9.850733E-14    8.919215E-16   -4.024247E-18   -5.340598E-19   -2.136201E-20   -6.665060E-22   -1.739031E-23   -3.868957E-25   -7.508544E-27
        -1.324420E-28
  24    -2.093849E-30   -1.394628E-28   -8.481935E-27   -4.515722E-25   -2.049256E-23   -7.762178E-22   -2.407588E-20   -5.677491E-19   -4.002350E-18    7.382729E-16
         6.889209E-14    3.827929E-12    1.443358E-10    3.618783E-09    5.448031E-08    3.610687E-07    5.448031E-08    3.618783E-09    1.443358E-10    3.827929E-12
         6.889187E-14    7.381567E-16   -4.024247E-18   -5.696672E-19   -2.418332E-20   -7.805667E-22   -2.062866E-23   -4.550232E-25   -8.555572E-27   -1.408296E-28
        -2.116901E-30
  25    -2.396579E-32   -1.918937E-30   -1.406360E-28   -9.020056E-27   -4.913970E-25   -2.219819E-23   -8.167957E-22   -2.407228E-20   -5.323840E-19   -4.569829E-18
         4.075385E-16    3.289290E-14    1.440385E-12    3.969852E-11    6.431687E-10    4.547548E-09    6.431687E-10    3.969852E-11    1.440384E-12    3.289272E-14
         4.074751E-16   -4.585093E-18   -5.340598E-19   -2.418332E-20   -8.218680E-22   -2.237037E-23   -4.959663E-25   -9.118696E-27   -1.424295E-28   -1.947339E-30
        -2.437555E-32
  26    -1.902268E-34   -1.903828E-32   -1.740945E-30   -1.382606E-28   -9.224143E-27   -5.043236E-25   -2.219349E-23   -7.759518E-22   -2.127663E-20   -4.362349E-19
        -4.616030E-18    1.333828E-16    1.012315E-14    3.318400E-13    5.877991E-12    4.421284E-11    5.877990E-12    3.318396E-13    1.012304E-14    1.333583E-16
        -4.623092E-18   -4.372639E-19   -2.136201E-20   -7.805667E-22   -2.237037E-23   -5.094074E-25   -9.338360E-27   -1.403373E-28   -1.772543E-30   -1.945575E-32
        -1.952677E-34
  27    -9.606172E-37   -1.299591E-34   -1.579864E-32   -1.625986E-30   -1.368368E-28   -9.221568E-27   -4.911678E-25   -2.048113E-23   -6.632593E-22   -1.652005E-20
        -3.069656E-19   -3.560662E-18    1.217571E-17    1.757748E-15    4.009600E-14    3.339540E-13    4.009595E-14    1.757721E-15    1.216834E-17   -3.562839E-18
        -3.073997E-19   -1.656803E-20   -6.665060E-22   -2.062866E-23   -4.959663E-25   -9.338360E-27   -1.390364E-28   -1.659001E-30   -1.620664E-32   -1.342951E-34
        -1.002964E-36
  28    -2.356232E-39   -5.459752E-37   -1.013734E-34   -1.465032E-32   -1.625362E-30   -1.381740E-28   -9.013206E-27   -4.512164E-25   -1.729211E-23   -5.045515E-22
        -1.111251E-20   -1.815005E-19   -2.053255E-18   -1.073310E-17    1.012132E-16    1.519372E-15    1.012105E-16   -1.073452E-17   -2.053729E-18   -1.816233E-19
        -1.113158E-20   -5.062726E-22   -1.739031E-23   -4.550232E-25   -9.118696E-27   -1.403373E-28   -1.659001E-30   -1.505539E-32   -1.052571E-34   -5.772112E-37
        -2.589176E-39
  29     1.832660E-42   -9.170908E-40   -4.265724E-37   -1.013107E-34   -1.578427E-32   -1.739107E-30   -1.404820E-28   -8.473159E-27   -3.844239E-25   -1.311272E-23
        -3.341329E-22   -6.306935E-21   -8.783315E-20   -8.856938E-19   -5.352191E-18   -1.512583E-17   -5.352320E-18   -8.857684E-19   -8.785682E-20   -6.312074E-21
        -3.347920E-22   -1.316316E-23   -3.868957E-25   -8.555572E-27   -1.424295E-28   -1.772543E-30   -1.620664E-32   -1.052571E-34   -4.540954E-37   -1.067516E-39
         1.067287E-42
  30     2.161580E-44    2.695505E-42   -9.148922E-40   -5.450179E-37   -1.297438E-34   -1.900800E-32   -1.916096E-30   -1.392811E-28   -7.454849E-27   -2.956138E-25
        -8.649097E-24   -1.849351E-22   -2.878184E-21   -3.270103E-20   -2.426898E-19   -1.082483E-18   -2.426954E-19   -3.270421E-20   -2.879110E-21   -1.851082E-22
        -8.668125E-24   -2.968746E-25   -7.508544E-27   -1.408296E-28   -1.947339E-30   -1.945575E-32   -1.342951E-34   -5.772112E-37   -1.067516E-39    2.225884E-42
         2.040499E-44
  31      0.00000        2.163650E-44    1.855410E-42   -2.345826E-39   -9.579450E-37   -1.897953E-34   -2.391959E-32   -2.090502E-30   -1.313874E-28   -6.016211E-27
        -2.003560E-25   -4.801371E-24   -8.221594E-23   -1.015036E-21   -8.464710E-21   -4.540733E-20   -8.464918E-21   -1.015150E-21   -8.224658E-23   -4.806434E-24
        -2.008433E-25   -6.044515E-27   -1.324420E-28   -2.116901E-30   -2.437555E-32   -1.952677E-34   -1.002964E-36   -2.589176E-39    1.067287E-42    2.040499E-44
          0.00000    

 CONCENTRATION WILL BE SAVED ON UNIT 1030 AT END OF TIME STEP   60, STRESS PERIOD    2


  MASS BUDGET FOR ENTIRE MODEL AT END OF TIME STEP   60, STRESS PERIOD   2
  ---------------------------------------------------------------------------------------------------

     CUMULATIVE MASS      M       RATES FOR THIS TIME STEP      M/T          PACKAGE NAME    
     ------------------                 ------------------------                     ----------------

           IN:                                      IN:
           ---                                      ---
     STORAGE-AQUEOUS =  6909714168.5612       STORAGE-AQUEOUS =     1373087.0764     MST                              
                 WEL =  7884000000.0000                   WEL =           0.0000     SSM_WEL-1                        
                 CHD =           0.0000                   CHD =           0.0000     SSM_CHD-1                        

            TOTAL IN = 14793714168.5612              TOTAL IN =     1373087.0764

          OUT:                                     OUT:
          ----                                     ----
     STORAGE-AQUEOUS =  7888708490.2034       STORAGE-AQUEOUS =          39.2404     MST                              
                 WEL =  6905005678.3580                   WEL =     1373047.8360     SSM_WEL-1                        
                 CHD =       7.5562E-18                   CHD =           0.0000     SSM_CHD-1                        

           TOTAL OUT = 14793714168.5613             TOTAL OUT =     1373087.0764

            IN - OUT =      -1.0300E-04              IN - OUT =      -3.6554E-08

 PERCENT DISCREPANCY =          -0.00     PERCENT DISCREPANCY =          -0.00




         TIME SUMMARY AT END OF TIME STEP   60 IN STRESS PERIOD    2
                    SECONDS     MINUTES      HOURS       DAYS        YEARS
                    -----------------------------------------------------------
   TIME STEP LENGTH 2.16991E+06  36165.      602.75      25.115     6.87602E-02
 STRESS PERIOD TIME 1.30194E+08 2.16991E+06  36165.      1506.9      4.1256    
         TOTAL TIME 2.09034E+08 3.48391E+06  58065.      2419.4      6.6239    


end timestep


start timestep kper="2" kstp="61" mode="normal"

 UBDSV1 SAVING  STORAGE-AQUEOUS ON UNIT   1029 AT TIME STEP     61, STRESS PERIOD      2
 UBDSV1 SAVING     FLOW-JA-FACE ON UNIT   1029 AT TIME STEP     61, STRESS PERIOD      2
 UBDSV06 SAVING  SOURCE-SINK MIX IN MODEL GWT_P06-MF6      PACKAGE GWT_P06-MF6     CONNECTED TO MODEL GWT_P06-MF6      PACKAGE SSM              ON UNIT   1029 AT TIME STEP     61, STRESS PERIOD      2
1
  CONCENTRATION IN LAYER   1 AT END OF TIME STEP  61 IN STRESS PERIOD    2
  ---------------------------------------------------------------------------

                1               2               3               4               5               6               7               8               9              10
               11              12              13              14              15              16              17              18              19              20
               21              22              23              24              25              26              27              28              29              30
               31
 ................................................................................................................................................................................................................................................................................................................................................................................................................................................................................................................
   1      0.00000        2.055384E-44    5.791694E-43   -2.872831E-39   -1.077469E-36   -2.071204E-34   -2.564128E-32   -2.212004E-30   -1.375774E-28   -6.244965E-27
        -2.064795E-25   -4.920130E-24   -8.390063E-23   -1.032195E-21   -8.576598E-21   -4.573709E-20   -8.576409E-21   -1.032099E-21   -8.387646E-23   -4.916181E-24
        -2.060889E-25   -6.221361E-27   -1.366617E-28   -2.188203E-30   -2.521615E-32   -2.018642E-34   -1.033084E-36   -2.627311E-39    1.391150E-42    2.184974E-44
          0.00000    
   2     2.055384E-44    2.006865E-42   -1.212221E-39   -6.213280E-37   -1.424179E-34   -2.045743E-32   -2.034424E-30   -1.463076E-28   -7.760591E-27   -3.053617E-25
        -8.876178E-24   -1.888080E-22   -2.926819E-21   -3.312164E-20   -2.446535E-19   -1.083039E-18   -2.446485E-19   -3.311897E-20   -2.926086E-21   -1.886726E-22
        -8.860870E-24   -3.043050E-25   -7.713682E-27   -1.449023E-28   -2.005094E-30   -2.002443E-32   -1.379008E-34   -5.886376E-37   -1.053965E-39    2.504359E-42
         2.187210E-44
   3     5.791694E-43   -1.212221E-39   -4.894035E-37   -1.116083E-34   -1.703285E-32   -1.851045E-30   -1.479402E-28   -8.843172E-27   -3.980592E-25   -1.348396E-23
        -3.415622E-22   -6.415190E-21   -8.887845E-20   -8.877020E-19   -5.241004E-18   -1.394762E-17   -5.240888E-18   -8.876390E-19   -8.885961E-20   -6.411158E-21
        -3.410295E-22   -1.344142E-23   -3.958833E-25   -8.767743E-27   -1.460955E-28   -1.818417E-30   -1.660987E-32   -1.075653E-34   -4.606175E-37   -1.051634E-39
         1.415490E-42
   4    -2.872831E-39   -6.213280E-37   -1.116083E-34   -1.581944E-32   -1.731894E-30   -1.457248E-28   -9.423799E-27   -4.681635E-25   -1.781755E-23   -5.166458E-22
        -1.131234E-20   -1.833289E-19   -2.030708E-18   -9.318166E-18    1.289174E-16    1.730894E-15    1.289198E-16   -9.316952E-18   -2.030326E-18   -1.832320E-19
        -1.129685E-20   -5.151827E-22   -1.773026E-23   -4.646414E-25   -9.322728E-27   -1.435889E-28   -1.697807E-30   -1.539957E-32   -1.074997E-34   -5.876298E-37
        -2.616268E-39
   5    -1.077469E-36   -1.424179E-34   -1.703285E-32   -1.731894E-30   -1.443552E-28   -9.649435E-27   -5.102530E-25   -2.113653E-23   -6.802585E-22   -1.683334E-20
        -3.092383E-19   -3.422987E-18    2.036730E-17    1.998265E-15    4.402411E-14    3.613332E-13    4.402416E-14    1.998289E-15    2.037344E-17   -3.421247E-18
        -3.088826E-19   -1.679213E-20   -6.773367E-22   -2.099814E-23   -5.055882E-25   -9.532390E-27   -1.420927E-28   -1.697161E-30   -1.659492E-32   -1.376755E-34
        -1.030269E-36
   6    -2.071204E-34   -2.045743E-32   -1.851045E-30   -1.457248E-28   -9.649435E-27   -5.240603E-25   -2.292099E-23   -7.967016E-22   -2.169648E-20   -4.380814E-19
        -4.197885E-18    1.617490E-16    1.126269E-14    3.610432E-13    6.316324E-12    4.705802E-11    6.316324E-12    3.610435E-13    1.126280E-14    1.617695E-16
        -4.192013E-18   -4.371859E-19   -2.161842E-20   -7.922962E-22   -2.274587E-23   -5.188698E-25   -9.529746E-27   -1.434996E-28   -1.816514E-30   -1.999292E-32
        -2.014125E-34
   7    -2.564128E-32   -2.034424E-30   -1.479402E-28   -9.423799E-27   -5.102530E-25   -2.292099E-23   -8.388572E-22   -2.455544E-20   -5.331912E-19   -3.743773E-18
         4.732466E-16    3.627565E-14    1.559559E-12    4.247090E-11    6.813344E-10    4.774530E-09    6.813344E-10    4.247091E-11    1.559560E-12    3.627582E-14
         4.733015E-16   -3.730233E-18   -5.316274E-19   -2.444706E-20   -8.337186E-22   -2.274109E-23   -5.053540E-25   -9.315699E-27   -1.459369E-28   -2.002153E-30
        -2.516807E-32
   8    -2.212004E-30   -1.463076E-28   -8.843172E-27   -4.681635E-25   -2.113653E-23   -7.967016E-22   -2.455544E-20   -5.679521E-19   -2.856835E-18    8.451729E-16
         7.564990E-14    4.132018E-12    1.538981E-10    3.817625E-09    5.692284E-08    3.739238E-07    5.692284E-08    3.817625E-09    1.538981E-10    4.132018E-12
         7.565015E-14    8.452794E-16   -2.835849E-18   -5.660264E-19   -2.444342E-20   -7.920266E-22   -2.098650E-23   -4.642778E-25   -8.758740E-27   -1.447151E-28
        -2.184740E-30
   9    -1.375774E-28   -7.760591E-27   -3.980592E-25   -1.781755E-23   -6.802585E-22   -2.169648E-20   -5.331912E-19   -2.856835E-18    1.017447E-15    1.079693E-13
         7.230791E-12    3.433038E-10    1.149628E-08    2.592343E-07    3.547601E-06    2.155759E-05    3.547601E-06    2.592343E-07    1.149628E-08    3.433038E-10
         7.230790E-12    1.079696E-13    1.017585E-15   -2.834982E-18   -5.315088E-19   -2.161036E-20   -6.769703E-22   -1.771771E-23   -3.955373E-25   -7.705609E-27
        -1.364935E-28
  10    -6.244965E-27   -3.053617E-25   -1.348396E-23   -5.166458E-22   -1.683334E-20   -4.380814E-19   -3.743773E-18    8.451729E-16    1.079693E-13    8.679649E-12
         5.048285E-10    2.129533E-08    6.333280E-07    1.268156E-05    1.555330E-04    8.566762E-04    1.555330E-04    1.268156E-05    6.333280E-07    2.129533E-08
         5.048285E-10    8.679646E-12    1.079696E-13    8.452876E-16   -3.728536E-18   -4.370483E-19   -1.678495E-20   -5.149033E-22   -1.343271E-23   -3.040762E-25
        -6.216005E-27
  11    -2.064795E-25   -8.876178E-24   -3.415622E-22   -1.131234E-20   -3.092383E-19   -4.197885E-18    4.732466E-16    7.564990E-14    7.230791E-12    5.048285E-10
         2.597032E-08    9.583408E-07    2.453554E-05    4.196611E-04    4.441789E-03    2.149372E-02    4.441789E-03    4.196611E-04    2.453554E-05    9.583408E-07
         2.597032E-08    5.048285E-10    7.230789E-12    7.565012E-14    4.733093E-16   -4.190830E-18   -3.088024E-19   -1.129312E-20   -3.408951E-22   -8.856855E-24
        -2.059830E-25
  12    -4.920130E-24   -1.888080E-22   -6.415190E-21   -1.833289E-19   -3.422987E-18    1.617490E-16    3.627565E-14    4.132018E-12    3.433038E-10    2.129533E-08
         9.583408E-07    3.006747E-05    6.332341E-04    8.716233E-03    7.494522E-02    0.303007        7.494522E-02    8.716233E-03    6.332341E-04    3.006747E-05
         9.583408E-07    2.129533E-08    3.433038E-10    4.132017E-12    3.627582E-14    1.617733E-16   -3.420809E-18   -1.832055E-19   -6.410007E-21   -1.886328E-22
        -4.914990E-24
  13    -8.390063E-23   -2.926819E-21   -8.887845E-20   -2.030708E-18    2.036730E-17    1.126269E-14    1.559559E-12    1.538981E-10    1.149628E-08    6.333280E-07
         2.453554E-05    6.332341E-04    1.037093E-02    0.105443        0.671093         2.09945        0.671093        0.105443        1.037093E-02    6.332341E-04
         2.453554E-05    6.333280E-07    1.149628E-08    1.538981E-10    1.559560E-12    1.126281E-14    2.037465E-17   -2.030233E-18   -8.885463E-20   -2.925885E-21
        -8.386961E-23
  14    -1.032195E-21   -3.312164E-20   -8.877020E-19   -9.318166E-18    1.998265E-15    3.610432E-13    4.247090E-11    3.817625E-09    2.592343E-07    1.268156E-05
         4.196611E-04    8.716233E-03    0.105443        0.722315         3.03134         6.74474         3.03134        0.722315        0.105443        8.716233E-03
         4.196611E-04    1.268156E-05    2.592343E-07    3.817625E-09    4.247091E-11    3.610436E-13    1.998293E-15   -9.316739E-18   -8.876269E-19   -3.311844E-20
        -1.032079E-21
  15    -8.576598E-21   -2.446535E-19   -5.241004E-18    1.289174E-16    4.402411E-14    6.316324E-12    6.813344E-10    5.692284E-08    3.547601E-06    1.555330E-04
         4.441789E-03    7.494522E-02    0.671093         3.03134         8.45430         11.7205         8.45430         3.03134        0.671093        7.494522E-02
         4.441789E-03    1.555330E-04    3.547601E-06    5.692284E-08    6.813344E-10    6.316324E-12    4.402416E-14    1.289201E-16   -5.240874E-18   -2.446479E-19
        -8.576387E-21
  16    -4.573709E-20   -1.083039E-18   -1.394762E-17    1.730894E-15    3.613332E-13    4.705802E-11    4.774530E-09    3.739238E-07    2.155759E-05    8.566762E-04
         2.149372E-02    0.303007         2.09945         6.74474         11.7205         15.3149         11.7205         6.74474         2.09945        0.303007    
         2.149372E-02    8.566762E-04    2.155759E-05    3.739238E-07    4.774530E-09    4.705802E-11    3.613332E-13    1.730894E-15   -1.394762E-17   -1.083039E-18
        -4.573709E-20
  17    -8.576409E-21   -2.446485E-19   -5.240888E-18    1.289198E-16    4.402416E-14    6.316324E-12    6.813344E-10    5.692284E-08    3.547601E-06    1.555330E-04
         4.441789E-03    7.494522E-02    0.671093         3.03134         8.45430         11.7205         8.45430         3.03134        0.671093        7.494522E-02
         4.441789E-03    1.555330E-04    3.547601E-06    5.692284E-08    6.813344E-10    6.316324E-12    4.402411E-14    1.289174E-16   -5.241004E-18   -2.446535E-19
        -8.576598E-21
  18    -1.032099E-21   -3.311897E-20   -8.876390E-19   -9.316952E-18    1.998289E-15    3.610435E-13    4.247091E-11    3.817625E-09    2.592343E-07    1.268156E-05
         4.196611E-04    8.716233E-03    0.105443        0.722315         3.03134         6.74474         3.03134        0.722315        0.105443        8.716233E-03
         4.196611E-04    1.268156E-05    2.592343E-07    3.817625E-09    4.247090E-11    3.610432E-13    1.998265E-15   -9.318166E-18   -8.877019E-19   -3.312164E-20
        -1.032195E-21
  19    -8.387646E-23   -2.926086E-21   -8.885961E-20   -2.030326E-18    2.037344E-17    1.126280E-14    1.559560E-12    1.538981E-10    1.149628E-08    6.333280E-07
         2.453554E-05    6.332341E-04    1.037093E-02    0.105443        0.671093         2.09945        0.671093        0.105443        1.037093E-02    6.332341E-04
         2.453554E-05    6.333280E-07    1.149628E-08    1.538981E-10    1.559559E-12    1.126269E-14    2.036730E-17   -2.030708E-18   -8.887845E-20   -2.926819E-21
        -8.390063E-23
  20    -4.916181E-24   -1.886726E-22   -6.411158E-21   -1.832320E-19   -3.421247E-18    1.617695E-16    3.627582E-14    4.132018E-12    3.433038E-10    2.129533E-08
         9.583408E-07    3.006747E-05    6.332341E-04    8.716233E-03    7.494522E-02    0.303007        7.494522E-02    8.716233E-03    6.332341E-04    3.006747E-05
         9.583408E-07    2.129533E-08    3.433038E-10    4.132018E-12    3.627565E-14    1.617490E-16   -3.422987E-18   -1.833289E-19   -6.415190E-21   -1.888080E-22
        -4.920130E-24
  21    -2.060889E-25   -8.860870E-24   -3.410295E-22   -1.129685E-20   -3.088826E-19   -4.192013E-18    4.733015E-16    7.565015E-14    7.230790E-12    5.048285E-10
         2.597032E-08    9.583408E-07    2.453554E-05    4.196611E-04    4.441789E-03    2.149372E-02    4.441789E-03    4.196611E-04    2.453554E-05    9.583408E-07
         2.597032E-08    5.048285E-10    7.230791E-12    7.564990E-14    4.732466E-16   -4.197885E-18   -3.092383E-19   -1.131234E-20   -3.415622E-22   -8.876178E-24
        -2.064795E-25
  22    -6.221361E-27   -3.043050E-25   -1.344142E-23   -5.151827E-22   -1.679213E-20   -4.371859E-19   -3.730233E-18    8.452794E-16    1.079696E-13    8.679646E-12
         5.048285E-10    2.129533E-08    6.333280E-07    1.268156E-05    1.555330E-04    8.566762E-04    1.555330E-04    1.268156E-05    6.333280E-07    2.129533E-08
         5.048285E-10    8.679649E-12    1.079693E-13    8.451729E-16   -3.743773E-18   -4.380814E-19   -1.683334E-20   -5.166458E-22   -1.348396E-23   -3.053617E-25
        -6.244965E-27
  23    -1.366617E-28   -7.713682E-27   -3.958833E-25   -1.773026E-23   -6.773367E-22   -2.161842E-20   -5.316274E-19   -2.835849E-18    1.017585E-15    1.079696E-13
         7.230789E-12    3.433038E-10    1.149628E-08    2.592343E-07    3.547601E-06    2.155759E-05    3.547601E-06    2.592343E-07    1.149628E-08    3.433038E-10
         7.230791E-12    1.079693E-13    1.017447E-15   -2.856835E-18   -5.331912E-19   -2.169648E-20   -6.802585E-22   -1.781755E-23   -3.980592E-25   -7.760591E-27
        -1.375774E-28
  24    -2.188203E-30   -1.449023E-28   -8.767743E-27   -4.646414E-25   -2.099814E-23   -7.922962E-22   -2.444706E-20   -5.660264E-19   -2.834982E-18    8.452876E-16
         7.565012E-14    4.132017E-12    1.538981E-10    3.817625E-09    5.692284E-08    3.739238E-07    5.692284E-08    3.817625E-09    1.538981E-10    4.132018E-12
         7.564990E-14    8.451729E-16   -2.856835E-18   -5.679521E-19   -2.455544E-20   -7.967016E-22   -2.113653E-23   -4.681635E-25   -8.843172E-27   -1.463076E-28
        -2.212004E-30
  25    -2.521615E-32   -2.005094E-30   -1.460955E-28   -9.322728E-27   -5.055882E-25   -2.274587E-23   -8.337186E-22   -2.444342E-20   -5.315088E-19   -3.728536E-18
         4.733093E-16    3.627582E-14    1.559560E-12    4.247091E-11    6.813344E-10    4.774530E-09    6.813344E-10    4.247090E-11    1.559559E-12    3.627565E-14
         4.732466E-16   -3.743773E-18   -5.331912E-19   -2.455544E-20   -8.388572E-22   -2.292099E-23   -5.102530E-25   -9.423799E-27   -1.479402E-28   -2.034424E-30
        -2.564128E-32
  26    -2.018642E-34   -2.002443E-32   -1.818417E-30   -1.435889E-28   -9.532390E-27   -5.188698E-25   -2.274109E-23   -7.920266E-22   -2.161036E-20   -4.370483E-19
        -4.190830E-18    1.617733E-16    1.126281E-14    3.610436E-13    6.316324E-12    4.705802E-11    6.316324E-12    3.610432E-13    1.126269E-14    1.617490E-16
        -4.197885E-18   -4.380814E-19   -2.169648E-20   -7.967016E-22   -2.292099E-23   -5.240603E-25   -9.649435E-27   -1.457248E-28   -1.851045E-30   -2.045743E-32
        -2.071204E-34
  27    -1.033084E-36   -1.379008E-34   -1.660987E-32   -1.697807E-30   -1.420927E-28   -9.529746E-27   -5.053540E-25   -2.098650E-23   -6.769703E-22   -1.678495E-20
        -3.088024E-19   -3.420809E-18    2.037465E-17    1.998293E-15    4.402416E-14    3.613332E-13    4.402411E-14    1.998265E-15    2.036730E-17   -3.422987E-18
        -3.092383E-19   -1.683334E-20   -6.802585E-22   -2.113653E-23   -5.102530E-25   -9.649435E-27   -1.443552E-28   -1.731894E-30   -1.703285E-32   -1.424179E-34
        -1.077468E-36
  28    -2.627311E-39   -5.886376E-37   -1.075653E-34   -1.539957E-32   -1.697161E-30   -1.434996E-28   -9.315699E-27   -4.642778E-25   -1.771771E-23   -5.149033E-22
        -1.129312E-20   -1.832055E-19   -2.030233E-18   -9.316739E-18    1.289201E-16    1.730894E-15    1.289174E-16   -9.318166E-18   -2.030708E-18   -1.833289E-19
        -1.131234E-20   -5.166458E-22   -1.781755E-23   -4.681635E-25   -9.423799E-27   -1.457248E-28   -1.731894E-30   -1.581944E-32   -1.116083E-34   -6.213280E-37
        -2.872831E-39
  29     1.391150E-42   -1.053965E-39   -4.606175E-37   -1.074997E-34   -1.659492E-32   -1.816514E-30   -1.459369E-28   -8.758740E-27   -3.955373E-25   -1.343271E-23
        -3.408951E-22   -6.410007E-21   -8.885463E-20   -8.876269E-19   -5.240874E-18   -1.394762E-17   -5.241004E-18   -8.877019E-19   -8.887845E-20   -6.415190E-21
        -3.415622E-22   -1.348396E-23   -3.980592E-25   -8.843172E-27   -1.479402E-28   -1.851045E-30   -1.703285E-32   -1.116083E-34   -4.894035E-37   -1.212221E-39
         5.791696E-43
  30     2.184974E-44    2.504359E-42   -1.051634E-39   -5.876298E-37   -1.376755E-34   -1.999292E-32   -2.002153E-30   -1.447151E-28   -7.705609E-27   -3.040762E-25
        -8.856855E-24   -1.886328E-22   -2.925885E-21   -3.311844E-20   -2.446479E-19   -1.083039E-18   -2.446535E-19   -3.312164E-20   -2.926819E-21   -1.888080E-22
        -8.876178E-24   -3.053617E-25   -7.760591E-27   -1.463076E-28   -2.034424E-30   -2.045743E-32   -1.424179E-34   -6.213280E-37   -1.212221E-39    2.006865E-42
         2.055384E-44
  31      0.00000        2.187210E-44    1.415490E-42   -2.616268E-39   -1.030269E-36   -2.014125E-34   -2.516807E-32   -2.184740E-30   -1.364935E-28   -6.216005E-27
        -2.059830E-25   -4.914990E-24   -8.386961E-23   -1.032079E-21   -8.576387E-21   -4.573709E-20   -8.576598E-21   -1.032195E-21   -8.390063E-23   -4.920130E-24
        -2.064795E-25   -6.244965E-27   -1.375774E-28   -2.212004E-30   -2.564128E-32   -2.071204E-34   -1.077468E-36   -2.872831E-39    5.791696E-43    2.055384E-44
          0.00000    

 CONCENTRATION WILL BE SAVED ON UNIT 1030 AT END OF TIME STEP   61, STRESS PERIOD    2


  MASS BUDGET FOR ENTIRE MODEL AT END OF TIME STEP   61, STRESS PERIOD   2
  ---------------------------------------------------------------------------------------------------

     CUMULATIVE MASS      M       RATES FOR THIS TIME STEP      M/T          PACKAGE NAME    
     ------------------                 ------------------------                     ----------------

           IN:                                      IN:
           ---                                      ---
     STORAGE-AQUEOUS =  6942946876.4734       STORAGE-AQUEOUS =     1323238.4155     MST                              
                 WEL =  7884000000.0000                   WEL =           0.0000     SSM_WEL-1                        
                 CHD =           0.0000                   CHD =           0.0000     SSM_CHD-1                        

            TOTAL IN = 14826946876.4734              TOTAL IN =     1323238.4155

          OUT:                                     OUT:
          ----                                     ----
     STORAGE-AQUEOUS =  7888709370.4320       STORAGE-AQUEOUS =          35.0484     MST                              
                 WEL =  6938237506.0416                   WEL =     1323203.3671     SSM_WEL-1                        
                 CHD =       7.5562E-18                   CHD =           0.0000     SSM_CHD-1                        

           TOTAL OUT = 14826946876.4735             TOTAL OUT =     1323238.4155

            IN - OUT =      -1.0109E-04              IN - OUT =      -3.5157E-08

 PERCENT DISCREPANCY =          -0.00     PERCENT DISCREPANCY =          -0.00




         TIME SUMMARY AT END OF TIME STEP   61 IN STRESS PERIOD    2
                    SECONDS     MINUTES      HOURS       DAYS        YEARS
                    -----------------------------------------------------------
   TIME STEP LENGTH 2.16991E+06  36165.      602.75      25.115     6.87602E-02
 STRESS PERIOD TIME 1.32364E+08 2.20607E+06  36768.      1532.0      4.1944    
         TOTAL TIME 2.11204E+08 3.52007E+06  58668.      2444.5      6.6927    


end timestep


start timestep kper="2" kstp="62" mode="normal"

 UBDSV1 SAVING  STORAGE-AQUEOUS ON UNIT   1029 AT TIME STEP     62, STRESS PERIOD      2
 UBDSV1 SAVING     FLOW-JA-FACE ON UNIT   1029 AT TIME STEP     62, STRESS PERIOD      2
 UBDSV06 SAVING  SOURCE-SINK MIX IN MODEL GWT_P06-MF6      PACKAGE GWT_P06-MF6     CONNECTED TO MODEL GWT_P06-MF6      PACKAGE SSM              ON UNIT   1029 AT TIME STEP     62, STRESS PERIOD      2
1
  CONCENTRATION IN LAYER   1 AT END OF TIME STEP  62 IN STRESS PERIOD    2
  ---------------------------------------------------------------------------

                1               2               3               4               5               6               7               8               9              10
               11              12              13              14              15              16              17              18              19              20
               21              22              23              24              25              26              27              28              29              30
               31
 ................................................................................................................................................................................................................................................................................................................................................................................................................................................................................................................
   1      0.00000        2.065047E-44    3.711647E-44   -3.177286E-39   -1.156412E-36   -2.195762E-34   -2.696273E-32   -2.310722E-30   -1.428798E-28   -6.450913E-27
        -2.122445E-25   -5.035980E-24   -8.558007E-23   -1.049427E-21   -8.688792E-21   -4.606451E-20   -8.688601E-21   -1.049330E-21   -8.555559E-23   -5.031971E-24
        -2.118466E-25   -6.426768E-27   -1.419389E-28   -2.286151E-30   -2.652173E-32   -2.140968E-34   -1.109905E-36   -2.918600E-39    8.981642E-43    2.203656E-44
          0.00000    
   2     2.065047E-44    1.760359E-42   -1.367767E-39   -6.680613E-37   -1.509499E-34   -2.150290E-32   -2.124816E-30   -1.519649E-28   -8.019637E-27   -3.140453E-25
        -9.088178E-24   -1.925633E-22   -2.974980E-21   -3.353762E-20   -2.465200E-19   -1.082809E-18   -2.465149E-19   -3.353493E-20   -2.974240E-21   -1.924263E-22
        -9.072634E-24   -3.129681E-25   -7.971617E-27   -1.505201E-28   -2.094532E-30   -2.105387E-32   -1.462453E-34   -6.338569E-37   -1.201321E-39    2.287166E-42
         2.206070E-44
   3     3.711647E-44   -1.367767E-39   -5.268016E-37   -1.182771E-34   -1.789487E-32   -1.932511E-30   -1.536309E-28   -9.138804E-27   -4.094843E-25   -1.381091E-23
        -3.484316E-22   -6.518973E-21   -8.987614E-20   -8.885947E-19   -5.111286E-18   -1.263794E-17   -5.111170E-18   -8.885314E-19   -8.985719E-20   -6.514906E-21
        -3.478925E-22   -1.376769E-23   -4.072648E-25   -9.061547E-27   -1.517340E-28   -1.898824E-30   -1.745643E-32   -1.140690E-34   -4.967014E-37   -1.198852E-39
         9.241901E-43
   4    -3.177286E-39   -6.680613E-37   -1.182771E-34   -1.661648E-32   -1.807525E-30   -1.512878E-28   -9.737422E-27   -4.816135E-25   -1.825305E-23   -5.271666E-22
        -1.149339E-20   -1.849117E-19   -2.001493E-18   -7.731773E-18    1.590631E-16    1.958215E-15    1.590655E-16   -7.730553E-18   -2.001110E-18   -1.848143E-19
        -1.147777E-20   -5.256855E-22   -1.816433E-23   -4.780191E-25   -9.633874E-27   -1.490912E-28   -1.772335E-30   -1.618134E-32   -1.140005E-34   -6.327964E-37
        -2.906886E-39
   5    -1.156412E-36   -1.509499E-34   -1.789487E-32   -1.807525E-30   -1.498469E-28   -9.969185E-27   -5.248769E-25   -2.165426E-23   -6.941988E-22   -1.709740E-20
        -3.106964E-19   -3.260104E-18    2.938570E-17    2.258495E-15    4.822727E-14    3.903547E-13    4.822732E-14    2.258519E-15    2.939184E-17   -3.258361E-18
        -3.103392E-19   -1.705584E-20   -6.912401E-22   -2.151355E-23   -5.201152E-25   -9.849256E-27   -1.475199E-28   -1.771667E-30   -1.744087E-32   -1.460096E-34
        -1.106939E-36
   6    -2.195762E-34   -2.150290E-32   -1.932511E-30   -1.512878E-28   -9.969185E-27   -5.390592E-25   -2.348230E-23   -8.130484E-22   -2.202726E-20   -4.380889E-19
        -3.714181E-18    1.928108E-16    1.249097E-14    3.921665E-13    6.778853E-12    5.003220E-11    6.778854E-12    3.921669E-13    1.249107E-14    1.928312E-16
        -3.708314E-18   -4.371898E-19   -2.194853E-20   -8.085862E-22   -2.330421E-23   -5.337602E-25   -9.846542E-27   -1.489991E-28   -1.896853E-30   -2.102109E-32
        -2.136241E-34
   7    -2.696273E-32   -2.124816E-30   -1.536309E-28   -9.737422E-27   -5.248769E-25   -2.348230E-23   -8.560661E-22   -2.492193E-20   -5.310702E-19   -2.796027E-18
         5.449742E-16    3.991149E-14    1.686141E-12    4.538374E-11    7.210249E-10    5.008289E-09    7.210249E-10    4.538374E-11    1.686142E-12    3.991166E-14
         5.450286E-16   -2.782509E-18   -5.295003E-19   -2.481261E-20   -8.508607E-22   -2.329934E-23   -5.198757E-25   -9.626660E-27   -1.515705E-28   -2.091487E-30
        -2.647171E-32
   8    -2.310722E-30   -1.519649E-28   -9.138804E-27   -4.816135E-25   -2.165426E-23   -8.130484E-22   -2.492193E-20   -5.647929E-19   -1.546826E-18    9.616735E-16
         8.289947E-14    4.454154E-12    1.639074E-10    4.023391E-09    5.942318E-08    3.869453E-07    5.942318E-08    4.023391E-09    1.639074E-10    4.454154E-12
         8.289972E-14    9.617787E-16   -1.525882E-18   -5.628597E-19   -2.480894E-20   -8.083130E-22   -2.150170E-23   -4.776477E-25   -9.052314E-27   -1.503273E-28
        -2.282569E-30
   9    -1.428798E-28   -8.019637E-27   -4.094843E-25   -1.825305E-23   -6.941988E-22   -2.202726E-20   -5.310702E-19   -1.546826E-18    1.154019E-15    1.181097E-13
         7.780999E-12    3.647700E-10    1.207552E-08    2.694306E-07    3.652154E-06    2.200118E-05    3.652154E-06    2.694306E-07    1.207552E-08    3.647700E-10
         7.780998E-12    1.181101E-13    1.154156E-15   -1.525018E-18   -5.293813E-19   -2.194040E-20   -6.908689E-22   -1.815157E-23   -4.069115E-25   -7.963344E-27
        -1.417658E-28
  10    -6.450913E-27   -3.140453E-25   -1.381091E-23   -5.271666E-22   -1.709740E-20   -4.380889E-19   -2.796027E-18    9.616735E-16    1.181097E-13    9.334747E-12
         5.357312E-10    2.231878E-08    6.559679E-07    1.299370E-05    1.578526E-04    8.621164E-04    1.578526E-04    1.299370E-05    6.559679E-07    2.231878E-08
         5.357313E-10    9.334744E-12    1.181100E-13    9.617868E-16   -2.780817E-18   -4.370518E-19   -1.704860E-20   -5.254026E-22   -1.375884E-23   -3.127348E-25
        -6.421286E-27
  11    -2.122445E-25   -9.088178E-24   -3.484316E-22   -1.149339E-20   -3.106964E-19   -3.714181E-18    5.449742E-16    8.289947E-14    7.780999E-12    5.357312E-10
         2.719731E-08    9.906827E-07    2.505317E-05    4.238084E-04    4.443913E-03    2.133193E-02    4.443913E-03    4.238084E-04    2.505317E-05    9.906827E-07
         2.719731E-08    5.357313E-10    7.780997E-12    8.289968E-14    5.450363E-16   -3.707133E-18   -3.102587E-19   -1.147401E-20   -3.477565E-22   -9.068557E-24
        -2.117387E-25
  12    -5.035980E-24   -1.925633E-22   -6.518973E-21   -1.849117E-19   -3.260104E-18    1.928108E-16    3.991149E-14    4.454154E-12    3.647700E-10    2.231878E-08
         9.906827E-07    3.066270E-05    6.375234E-04    8.677447E-03    7.395088E-02    0.296870        7.395088E-02    8.677447E-03    6.375234E-04    3.066270E-05
         9.906827E-07    2.231878E-08    3.647700E-10    4.454153E-12    3.991166E-14    1.928350E-16   -3.257924E-18   -1.847877E-19   -6.513746E-21   -1.923861E-22
        -5.030762E-24
  13    -8.558007E-23   -2.974980E-21   -8.987614E-20   -2.001493E-18    2.938570E-17    1.249097E-14    1.686141E-12    1.639074E-10    1.207552E-08    6.559679E-07
         2.505317E-05    6.375234E-04    1.030377E-02    0.103607        0.654330         2.03643        0.654330        0.103607        1.030377E-02    6.375234E-04
         2.505317E-05    6.559679E-07    1.207552E-08    1.639074E-10    1.686142E-12    1.249108E-14    2.939304E-17   -2.001017E-18   -8.985219E-20   -2.974037E-21
        -8.554866E-23
  14    -1.049427E-21   -3.353762E-20   -8.885947E-19   -7.731773E-18    2.258495E-15    3.921665E-13    4.538374E-11    4.023391E-09    2.694306E-07    1.299370E-05
         4.238084E-04    8.677447E-03    0.103607        0.702649         2.93298         6.51063         2.93298        0.702649        0.103607        8.677447E-03
         4.238084E-04    1.299370E-05    2.694306E-07    4.023391E-09    4.538374E-11    3.921669E-13    2.258523E-15   -7.730338E-18   -8.885193E-19   -3.353439E-20
        -1.049310E-21
  15    -8.688792E-21   -2.465200E-19   -5.111286E-18    1.590631E-16    4.822727E-14    6.778853E-12    7.210249E-10    5.942318E-08    3.652154E-06    1.578526E-04
         4.443913E-03    7.395088E-02    0.654330         2.93298         8.15957         11.3010         8.15957         2.93298        0.654330        7.395088E-02
         4.443913E-03    1.578526E-04    3.652154E-06    5.942318E-08    7.210249E-10    6.778854E-12    4.822733E-14    1.590659E-16   -5.111156E-18   -2.465143E-19
        -8.688579E-21
  16    -4.606451E-20   -1.082809E-18   -1.263794E-17    1.958215E-15    3.903547E-13    5.003220E-11    5.008289E-09    3.869453E-07    2.200118E-05    8.621164E-04
         2.133193E-02    0.296870         2.03643         6.51063         11.3010         14.7598         11.3010         6.51063         2.03643        0.296870    
         2.133193E-02    8.621164E-04    2.200118E-05    3.869453E-07    5.008289E-09    5.003220E-11    3.903547E-13    1.958215E-15   -1.263794E-17   -1.082809E-18
        -4.606451E-20
  17    -8.688601E-21   -2.465149E-19   -5.111170E-18    1.590655E-16    4.822732E-14    6.778854E-12    7.210249E-10    5.942318E-08    3.652154E-06    1.578526E-04
         4.443913E-03    7.395088E-02    0.654330         2.93298         8.15957         11.3010         8.15957         2.93298        0.654330        7.395088E-02
         4.443913E-03    1.578526E-04    3.652154E-06    5.942318E-08    7.210249E-10    6.778853E-12    4.822727E-14    1.590631E-16   -5.111286E-18   -2.465200E-19
        -8.688791E-21
  18    -1.049330E-21   -3.353493E-20   -8.885314E-19   -7.730553E-18    2.258519E-15    3.921669E-13    4.538374E-11    4.023391E-09    2.694306E-07    1.299370E-05
         4.238084E-04    8.677447E-03    0.103607        0.702649         2.93298         6.51063         2.93298        0.702649        0.103607        8.677447E-03
         4.238084E-04    1.299370E-05    2.694306E-07    4.023391E-09    4.538374E-11    3.921665E-13    2.258495E-15   -7.731773E-18   -8.885947E-19   -3.353762E-20
        -1.049427E-21
  19    -8.555559E-23   -2.974240E-21   -8.985719E-20   -2.001110E-18    2.939184E-17    1.249107E-14    1.686142E-12    1.639074E-10    1.207552E-08    6.559679E-07
         2.505317E-05    6.375234E-04    1.030377E-02    0.103607        0.654330         2.03643        0.654330        0.103607        1.030377E-02    6.375234E-04
         2.505317E-05    6.559679E-07    1.207552E-08    1.639074E-10    1.686141E-12    1.249097E-14    2.938570E-17   -2.001493E-18   -8.987614E-20   -2.974980E-21
        -8.558007E-23
  20    -5.031971E-24   -1.924263E-22   -6.514906E-21   -1.848143E-19   -3.258361E-18    1.928312E-16    3.991166E-14    4.454154E-12    3.647700E-10    2.231878E-08
         9.906827E-07    3.066270E-05    6.375234E-04    8.677447E-03    7.395088E-02    0.296870        7.395088E-02    8.677447E-03    6.375234E-04    3.066270E-05
         9.906827E-07    2.231878E-08    3.647700E-10    4.454154E-12    3.991149E-14    1.928108E-16   -3.260104E-18   -1.849117E-19   -6.518973E-21   -1.925633E-22
        -5.035980E-24
  21    -2.118466E-25   -9.072634E-24   -3.478925E-22   -1.147777E-20   -3.103392E-19   -3.708314E-18    5.450286E-16    8.289972E-14    7.780998E-12    5.357313E-10
         2.719731E-08    9.906827E-07    2.505317E-05    4.238084E-04    4.443913E-03    2.133193E-02    4.443913E-03    4.238084E-04    2.505317E-05    9.906827E-07
         2.719731E-08    5.357312E-10    7.780999E-12    8.289947E-14    5.449742E-16   -3.714181E-18   -3.106964E-19   -1.149339E-20   -3.484316E-22   -9.088178E-24
        -2.122445E-25
  22    -6.426768E-27   -3.129681E-25   -1.376769E-23   -5.256855E-22   -1.705584E-20   -4.371898E-19   -2.782509E-18    9.617787E-16    1.181101E-13    9.334744E-12
         5.357313E-10    2.231878E-08    6.559679E-07    1.299370E-05    1.578526E-04    8.621164E-04    1.578526E-04    1.299370E-05    6.559679E-07    2.231878E-08
         5.357312E-10    9.334747E-12    1.181097E-13    9.616735E-16   -2.796027E-18   -4.380889E-19   -1.709740E-20   -5.271666E-22   -1.381091E-23   -3.140453E-25
        -6.450913E-27
  23    -1.419389E-28   -7.971617E-27   -4.072648E-25   -1.816433E-23   -6.912401E-22   -2.194853E-20   -5.295003E-19   -1.525882E-18    1.154156E-15    1.181100E-13
         7.780997E-12    3.647700E-10    1.207552E-08    2.694306E-07    3.652154E-06    2.200118E-05    3.652154E-06    2.694306E-07    1.207552E-08    3.647700E-10
         7.780999E-12    1.181097E-13    1.154019E-15   -1.546826E-18   -5.310702E-19   -2.202726E-20   -6.941988E-22   -1.825305E-23   -4.094843E-25   -8.019637E-27
        -1.428798E-28
  24    -2.286151E-30   -1.505201E-28   -9.061547E-27   -4.780191E-25   -2.151355E-23   -8.085862E-22   -2.481261E-20   -5.628597E-19   -1.525018E-18    9.617868E-16
         8.289968E-14    4.454153E-12    1.639074E-10    4.023391E-09    5.942318E-08    3.869453E-07    5.942318E-08    4.023391E-09    1.639074E-10    4.454154E-12
         8.289947E-14    9.616735E-16   -1.546826E-18   -5.647929E-19   -2.492193E-20   -8.130484E-22   -2.165426E-23   -4.816135E-25   -9.138804E-27   -1.519649E-28
        -2.310722E-30
  25    -2.652173E-32   -2.094532E-30   -1.517340E-28   -9.633874E-27   -5.201152E-25   -2.330421E-23   -8.508607E-22   -2.480894E-20   -5.293813E-19   -2.780817E-18
         5.450363E-16    3.991166E-14    1.686142E-12    4.538374E-11    7.210249E-10    5.008289E-09    7.210249E-10    4.538374E-11    1.686141E-12    3.991149E-14
         5.449742E-16   -2.796027E-18   -5.310702E-19   -2.492193E-20   -8.560661E-22   -2.348230E-23   -5.248769E-25   -9.737422E-27   -1.536309E-28   -2.124816E-30
        -2.696273E-32
  26    -2.140968E-34   -2.105387E-32   -1.898824E-30   -1.490912E-28   -9.849256E-27   -5.337602E-25   -2.329934E-23   -8.083130E-22   -2.194040E-20   -4.370518E-19
        -3.707133E-18    1.928350E-16    1.249108E-14    3.921669E-13    6.778854E-12    5.003220E-11    6.778853E-12    3.921665E-13    1.249097E-14    1.928108E-16
        -3.714181E-18   -4.380889E-19   -2.202726E-20   -8.130484E-22   -2.348230E-23   -5.390592E-25   -9.969185E-27   -1.512878E-28   -1.932511E-30   -2.150290E-32
        -2.195762E-34
  27    -1.109905E-36   -1.462453E-34   -1.745643E-32   -1.772335E-30   -1.475199E-28   -9.846542E-27   -5.198757E-25   -2.150170E-23   -6.908689E-22   -1.704860E-20
        -3.102587E-19   -3.257924E-18    2.939304E-17    2.258523E-15    4.822733E-14    3.903547E-13    4.822727E-14    2.258495E-15    2.938570E-17   -3.260104E-18
        -3.106964E-19   -1.709740E-20   -6.941988E-22   -2.165426E-23   -5.248769E-25   -9.969185E-27   -1.498469E-28   -1.807525E-30   -1.789487E-32   -1.509499E-34
        -1.156412E-36
  28    -2.918600E-39   -6.338569E-37   -1.140690E-34   -1.618134E-32   -1.771667E-30   -1.489991E-28   -9.626660E-27   -4.776477E-25   -1.815157E-23   -5.254026E-22
        -1.147401E-20   -1.847877E-19   -2.001017E-18   -7.730338E-18    1.590659E-16    1.958215E-15    1.590631E-16   -7.731773E-18   -2.001493E-18   -1.849117E-19
        -1.149339E-20   -5.271666E-22   -1.825305E-23   -4.816135E-25   -9.737422E-27   -1.512878E-28   -1.807525E-30   -1.661648E-32   -1.182771E-34   -6.680613E-37
        -3.177286E-39
  29     8.981642E-43   -1.201321E-39   -4.967014E-37   -1.140005E-34   -1.744087E-32   -1.896853E-30   -1.515705E-28   -9.052314E-27   -4.069115E-25   -1.375884E-23
        -3.477565E-22   -6.513746E-21   -8.985219E-20   -8.885193E-19   -5.111156E-18   -1.263794E-17   -5.111286E-18   -8.885947E-19   -8.987614E-20   -6.518973E-21
        -3.484316E-22   -1.381091E-23   -4.094843E-25   -9.138804E-27   -1.536309E-28   -1.932511E-30   -1.789487E-32   -1.182771E-34   -5.268016E-37   -1.367767E-39
         3.711666E-44
  30     2.203656E-44    2.287166E-42   -1.198852E-39   -6.327964E-37   -1.460096E-34   -2.102109E-32   -2.091487E-30   -1.503273E-28   -7.963344E-27   -3.127348E-25
        -9.068557E-24   -1.923861E-22   -2.974037E-21   -3.353439E-20   -2.465143E-19   -1.082809E-18   -2.465200E-19   -3.353762E-20   -2.974980E-21   -1.925633E-22
        -9.088178E-24   -3.140453E-25   -8.019637E-27   -1.519649E-28   -2.124816E-30   -2.150290E-32   -1.509499E-34   -6.680613E-37   -1.367767E-39    1.760359E-42
         2.065047E-44
  31      0.00000        2.206070E-44    9.241901E-43   -2.906886E-39   -1.106939E-36   -2.136241E-34   -2.647171E-32   -2.282569E-30   -1.417658E-28   -6.421286E-27
        -2.117387E-25   -5.030762E-24   -8.554866E-23   -1.049310E-21   -8.688579E-21   -4.606451E-20   -8.688791E-21   -1.049427E-21   -8.558007E-23   -5.035980E-24
        -2.122445E-25   -6.450913E-27   -1.428798E-28   -2.310722E-30   -2.696273E-32   -2.195762E-34   -1.156412E-36   -3.177286E-39    3.711666E-44    2.065047E-44
          0.00000    

 CONCENTRATION WILL BE SAVED ON UNIT 1030 AT END OF TIME STEP   62, STRESS PERIOD    2


  MASS BUDGET FOR ENTIRE MODEL AT END OF TIME STEP   62, STRESS PERIOD   2
  ---------------------------------------------------------------------------------------------------

     CUMULATIVE MASS      M       RATES FOR THIS TIME STEP      M/T          PACKAGE NAME    
     ------------------                 ------------------------                     ----------------

           IN:                                      IN:
           ---                                      ---
     STORAGE-AQUEOUS =  6974975138.9312       STORAGE-AQUEOUS =     1275280.5874     MST                              
                 WEL =  7884000000.0000                   WEL =           0.0000     SSM_WEL-1                        
                 CHD =           0.0000                   CHD =           0.0000     SSM_CHD-1                        

            TOTAL IN = 14858975138.9312              TOTAL IN =     1275280.5874

          OUT:                                     OUT:
          ----                                     ----
     STORAGE-AQUEOUS =  7888710147.4662       STORAGE-AQUEOUS =          30.9394     MST                              
                 WEL =  6970264991.4651                   WEL =     1275249.6479     SSM_WEL-1                        
                 CHD =       7.5562E-18                   CHD =           0.0000     SSM_CHD-1                        

           TOTAL OUT = 14858975138.9313             TOTAL OUT =     1275280.5874

            IN - OUT =      -1.0300E-04              IN - OUT =      -3.5623E-08

 PERCENT DISCREPANCY =          -0.00     PERCENT DISCREPANCY =          -0.00




         TIME SUMMARY AT END OF TIME STEP   62 IN STRESS PERIOD    2
                    SECONDS     MINUTES      HOURS       DAYS        YEARS
                    -----------------------------------------------------------
   TIME STEP LENGTH 2.16991E+06  36165.      602.75      25.115     6.87602E-02
 STRESS PERIOD TIME 1.34534E+08 2.24224E+06  37371.      1557.1      4.2631    
         TOTAL TIME 2.13374E+08 3.55624E+06  59271.      2469.6      6.7614    


end timestep


start timestep kper="2" kstp="63" mode="normal"

 UBDSV1 SAVING  STORAGE-AQUEOUS ON UNIT   1029 AT TIME STEP     63, STRESS PERIOD      2
 UBDSV1 SAVING     FLOW-JA-FACE ON UNIT   1029 AT TIME STEP     63, STRESS PERIOD      2
 UBDSV06 SAVING  SOURCE-SINK MIX IN MODEL GWT_P06-MF6      PACKAGE GWT_P06-MF6     CONNECTED TO MODEL GWT_P06-MF6      PACKAGE SSM              ON UNIT   1029 AT TIME STEP     63, STRESS PERIOD      2
1
  CONCENTRATION IN LAYER   1 AT END OF TIME STEP  63 IN STRESS PERIOD    2
  ---------------------------------------------------------------------------

                1               2               3               4               5               6               7               8               9              10
               11              12              13              14              15              16              17              18              19              20
               21              22              23              24              25              26              27              28              29              30
               31
 ................................................................................................................................................................................................................................................................................................................................................................................................................................................................................................................
   1      0.00000        2.068917E-44   -5.627742E-43   -3.503760E-39   -1.240016E-36   -2.326611E-34   -2.834196E-32   -2.413169E-30   -1.483536E-28   -6.662481E-27
        -2.181407E-25   -5.154014E-24   -8.728507E-23   -1.066844E-21   -8.801434E-21   -4.638910E-20   -8.801242E-21   -1.066747E-21   -8.726029E-23   -5.149945E-24
        -2.177354E-25   -6.637785E-27   -1.473869E-28   -2.387808E-30   -2.788459E-32   -2.269504E-34   -1.191298E-36   -3.231292E-39    3.499145E-43    2.217081E-44
          0.00000    
   2     2.068917E-44    1.484352E-42   -1.534786E-39   -7.175403E-37   -1.599089E-34   -2.259377E-32   -2.218620E-30   -1.578062E-28   -8.285839E-27   -3.229291E-25
        -9.304178E-24   -1.963743E-22   -3.023572E-21   -3.395144E-20   -2.482832E-19   -1.081714E-18   -2.482781E-19   -3.394872E-20   -3.022826E-21   -1.962357E-22
        -9.288394E-24   -3.218310E-25   -8.236687E-27   -1.563210E-28   -2.187356E-30   -2.212821E-32   -1.550098E-34   -6.817603E-37   -1.359778E-39    2.041977E-42
         2.219684E-44
   3    -5.627742E-43   -1.534786E-39   -5.663927E-37   -1.252770E-34   -1.879402E-32   -2.017035E-30   -1.595067E-28   -9.442649E-27   -4.211757E-25   -1.414409E-23
        -3.554000E-22   -6.623326E-21   -9.084551E-20   -8.883331E-19   -4.961632E-18   -1.118748E-17   -4.961515E-18   -8.882694E-19   -9.082644E-20   -6.619224E-21
        -3.548544E-22   -1.410019E-23   -4.189119E-25   -9.363529E-27   -1.575562E-28   -1.982259E-30   -1.833962E-32   -1.208980E-34   -5.349251E-37   -1.357163E-39
         3.777275E-43
   4    -3.503760E-39   -7.175403E-37   -1.252770E-34   -1.744771E-32   -1.885979E-30   -1.570310E-28   -1.005976E-26   -4.953788E-25   -1.869692E-23   -5.378331E-22
        -1.167443E-20   -1.863544E-19   -1.965496E-18   -5.962033E-18    1.918090E-16    2.202221E-15    1.918114E-16   -5.960806E-18   -1.965111E-18   -1.862566E-19
        -1.165868E-20   -5.363339E-22   -1.860675E-23   -4.917110E-25   -9.953684E-27   -1.547722E-28   -1.849657E-30   -1.699681E-32   -1.208263E-34   -6.806446E-37
        -3.218873E-39
   5    -1.240016E-36   -1.599089E-34   -1.879402E-32   -1.885979E-30   -1.555160E-28   -1.029781E-26   -5.398441E-25   -2.218197E-23   -7.083225E-22   -1.735952E-20
        -3.117269E-19   -3.072125E-18    3.928394E-17    2.539631E-15    5.271952E-14    4.210855E-13    5.271957E-14    2.539655E-15    3.929007E-17   -3.070381E-18
        -3.113682E-19   -1.731762E-20   -7.053266E-22   -2.203890E-23   -5.349839E-25   -1.017494E-26   -1.531231E-28   -1.848965E-30   -1.832344E-32   -1.547633E-34
        -1.188176E-36
   6    -2.326611E-34   -2.259377E-32   -2.017035E-30   -1.570310E-28   -1.029781E-26   -5.544102E-25   -2.405443E-23   -8.296002E-22   -2.235320E-20   -4.371926E-19
        -3.166913E-18    2.267329E-16    1.381303E-14    4.252988E-13    7.266424E-12    5.313844E-11    7.266424E-12    4.252991E-13    1.381313E-14    2.267531E-16
        -3.161050E-18   -4.362900E-19   -2.227380E-20   -8.250808E-22   -2.387332E-23   -5.490011E-25   -1.017215E-26   -1.546773E-28   -1.980220E-30   -2.209411E-32
        -2.264557E-34
   7    -2.834196E-32   -2.218620E-30   -1.595067E-28   -1.005976E-26   -5.398441E-25   -2.405443E-23   -8.734865E-22   -2.528131E-20   -5.275588E-19   -1.732835E-18
         6.230668E-16    4.381422E-14    1.820441E-12    4.844113E-11    7.622654E-10    5.248844E-09    7.622654E-10    4.844113E-11    1.820441E-12    4.381440E-14
         6.231206E-16   -1.719340E-18   -5.259830E-19   -2.517104E-20   -8.682138E-22   -2.386837E-23   -5.347392E-25   -9.946283E-27   -1.573877E-28   -2.184205E-30
        -2.783257E-32
   8    -2.413169E-30   -1.578062E-28   -9.442649E-27   -4.953788E-25   -2.218197E-23   -8.296002E-22   -2.528131E-20   -5.600336E-19   -8.553124E-20    1.088298E-15
         9.066664E-14    4.795035E-12    1.743745E-10    4.236140E-09    6.198081E-08    4.001271E-07    6.198081E-08    4.236140E-09    1.743745E-10    4.795035E-12
         9.066689E-14    1.088402E-15   -6.477272E-20   -5.580931E-19   -2.516734E-20   -8.248039E-22   -2.202685E-23   -4.913316E-25   -9.354060E-27   -1.561225E-28
        -2.384103E-30
   9    -1.483536E-28   -8.285839E-27   -4.211757E-25   -1.869692E-23   -7.083225E-22   -2.235320E-20   -5.275588E-19   -8.553124E-20    1.302380E-15    1.289638E-13
         8.362236E-12    3.871550E-10    1.267188E-08    2.797989E-07    3.757190E-06    2.244106E-05    3.757190E-06    2.797989E-07    1.267188E-08    3.871550E-10
         8.362235E-12    1.289641E-13    1.302515E-15   -6.391717E-20   -5.258635E-19   -2.226560E-20   -7.049506E-22   -1.859377E-23   -4.185513E-25   -8.228210E-27
        -1.472089E-28
  10    -6.662481E-27   -3.229291E-25   -1.414409E-23   -5.378331E-22   -1.735952E-20   -4.371926E-19   -1.732835E-18    1.088298E-15    1.289638E-13    1.002638E-11
         5.679078E-10    2.336936E-08    6.788729E-07    1.330475E-05    1.601225E-04    8.672414E-04    1.601225E-04    1.330475E-05    6.788729E-07    2.336936E-08
         5.679078E-10    1.002638E-11    1.289641E-13    1.088410E-15   -1.717654E-18   -4.361516E-19   -1.731031E-20   -5.360475E-22   -1.409119E-23   -3.215931E-25
        -6.632175E-27
  11    -2.181407E-25   -9.304178E-24   -3.554000E-22   -1.167443E-20   -3.117269E-19   -3.166913E-18    6.230668E-16    9.066664E-14    8.362236E-12    5.679078E-10
         2.845548E-08    1.023303E-06    2.556531E-05    4.277866E-04    4.444471E-03    2.116648E-02    4.444471E-03    4.277866E-04    2.556531E-05    1.023303E-06
         2.845548E-08    5.679078E-10    8.362234E-12    9.066686E-14    6.231282E-16   -3.159873E-18   -3.112874E-19   -1.165489E-20   -3.547169E-22   -9.284255E-24
        -2.176255E-25
  12    -5.154014E-24   -1.963743E-22   -6.623326E-21   -1.863544E-19   -3.072125E-18    2.267329E-16    4.381422E-14    4.795035E-12    3.871550E-10    2.336936E-08
         1.023303E-06    3.124981E-05    6.415377E-04    8.636124E-03    7.295702E-02    0.290840        7.295702E-02    8.636124E-03    6.415377E-04    3.124981E-05
         1.023303E-06    2.336936E-08    3.871550E-10    4.795034E-12    4.381439E-14    2.267568E-16   -3.069944E-18   -1.862298E-19   -6.618055E-21   -1.961950E-22
        -5.148718E-24
  13    -8.728507E-23   -3.023572E-21   -9.084551E-20   -1.965496E-18    3.928394E-17    1.381303E-14    1.820441E-12    1.743745E-10    1.267188E-08    6.788729E-07
         2.556531E-05    6.415377E-04    1.023398E-02    0.101789        0.637980         1.97544        0.637980        0.101789        1.023398E-02    6.415377E-04
         2.556531E-05    6.788729E-07    1.267188E-08    1.743745E-10    1.820442E-12    1.381315E-14    3.929127E-17   -1.965018E-18   -9.082141E-20   -3.022621E-21
        -8.725328E-23
  14    -1.066844E-21   -3.395144E-20   -8.883331E-19   -5.962033E-18    2.539631E-15    4.252988E-13    4.844113E-11    4.236140E-09    2.797989E-07    1.330475E-05
         4.277866E-04    8.636124E-03    0.101789        0.683528         2.83806         6.28527         2.83806        0.683528        0.101789        8.636124E-03
         4.277866E-04    1.330475E-05    2.797989E-07    4.236140E-09    4.844113E-11    4.252992E-13    2.539659E-15   -5.960591E-18   -8.882573E-19   -3.394818E-20
        -1.066727E-21
  15    -8.801434E-21   -2.482832E-19   -4.961632E-18    1.918090E-16    5.271952E-14    7.266424E-12    7.622654E-10    6.198081E-08    3.757190E-06    1.601225E-04
         4.444471E-03    7.295702E-02    0.637980         2.83806         7.87565         10.8973         7.87565         2.83806        0.637980        7.295702E-02
         4.444471E-03    1.601225E-04    3.757190E-06    6.198081E-08    7.622654E-10    7.266424E-12    5.271958E-14    1.918117E-16   -4.961501E-18   -2.482775E-19
        -8.801220E-21
  16    -4.638910E-20   -1.081714E-18   -1.118748E-17    2.202221E-15    4.210855E-13    5.313844E-11    5.248844E-09    4.001271E-07    2.244106E-05    8.672414E-04
         2.116648E-02    0.290840         1.97544         6.28527         10.8973         14.2259         10.8973         6.28527         1.97544        0.290840    
         2.116648E-02    8.672414E-04    2.244106E-05    4.001271E-07    5.248844E-09    5.313844E-11    4.210855E-13    2.202222E-15   -1.118748E-17   -1.081714E-18
        -4.638910E-20
  17    -8.801242E-21   -2.482781E-19   -4.961515E-18    1.918114E-16    5.271957E-14    7.266424E-12    7.622654E-10    6.198081E-08    3.757190E-06    1.601225E-04
         4.444471E-03    7.295702E-02    0.637980         2.83806         7.87565         10.8973         7.87565         2.83806        0.637980        7.295702E-02
         4.444471E-03    1.601225E-04    3.757190E-06    6.198081E-08    7.622654E-10    7.266424E-12    5.271952E-14    1.918090E-16   -4.961632E-18   -2.482832E-19
        -8.801434E-21
  18    -1.066747E-21   -3.394872E-20   -8.882694E-19   -5.960806E-18    2.539655E-15    4.252991E-13    4.844113E-11    4.236140E-09    2.797989E-07    1.330475E-05
         4.277866E-04    8.636124E-03    0.101789        0.683528         2.83806         6.28527         2.83806        0.683528        0.101789        8.636124E-03
         4.277866E-04    1.330475E-05    2.797989E-07    4.236140E-09    4.844113E-11    4.252988E-13    2.539631E-15   -5.962033E-18   -8.883330E-19   -3.395144E-20
        -1.066844E-21
  19    -8.726029E-23   -3.022826E-21   -9.082644E-20   -1.965111E-18    3.929007E-17    1.381313E-14    1.820441E-12    1.743745E-10    1.267188E-08    6.788729E-07
         2.556531E-05    6.415377E-04    1.023398E-02    0.101789        0.637980         1.97544        0.637980        0.101789        1.023398E-02    6.415377E-04
         2.556531E-05    6.788729E-07    1.267188E-08    1.743745E-10    1.820441E-12    1.381303E-14    3.928394E-17   -1.965496E-18   -9.084551E-20   -3.023572E-21
        -8.728507E-23
  20    -5.149945E-24   -1.962357E-22   -6.619224E-21   -1.862566E-19   -3.070381E-18    2.267531E-16    4.381440E-14    4.795035E-12    3.871550E-10    2.336936E-08
         1.023303E-06    3.124981E-05    6.415377E-04    8.636124E-03    7.295702E-02    0.290840        7.295702E-02    8.636124E-03    6.415377E-04    3.124981E-05
         1.023303E-06    2.336936E-08    3.871550E-10    4.795035E-12    4.381422E-14    2.267329E-16   -3.072125E-18   -1.863544E-19   -6.623325E-21   -1.963743E-22
        -5.154014E-24
  21    -2.177354E-25   -9.288394E-24   -3.548544E-22   -1.165868E-20   -3.113682E-19   -3.161050E-18    6.231206E-16    9.066689E-14    8.362235E-12    5.679078E-10
         2.845548E-08    1.023303E-06    2.556531E-05    4.277866E-04    4.444471E-03    2.116648E-02    4.444471E-03    4.277866E-04    2.556531E-05    1.023303E-06
         2.845548E-08    5.679078E-10    8.362236E-12    9.066664E-14    6.230668E-16   -3.166913E-18   -3.117269E-19   -1.167443E-20   -3.554000E-22   -9.304178E-24
        -2.181407E-25
  22    -6.637785E-27   -3.218310E-25   -1.410019E-23   -5.363339E-22   -1.731762E-20   -4.362900E-19   -1.719340E-18    1.088402E-15    1.289641E-13    1.002638E-11
         5.679078E-10    2.336936E-08    6.788729E-07    1.330475E-05    1.601225E-04    8.672414E-04    1.601225E-04    1.330475E-05    6.788729E-07    2.336936E-08
         5.679078E-10    1.002638E-11    1.289638E-13    1.088298E-15   -1.732835E-18   -4.371926E-19   -1.735952E-20   -5.378331E-22   -1.414409E-23   -3.229291E-25
        -6.662481E-27
  23    -1.473869E-28   -8.236687E-27   -4.189119E-25   -1.860675E-23   -7.053266E-22   -2.227380E-20   -5.259830E-19   -6.477272E-20    1.302515E-15    1.289641E-13
         8.362234E-12    3.871550E-10    1.267188E-08    2.797989E-07    3.757190E-06    2.244106E-05    3.757190E-06    2.797989E-07    1.267188E-08    3.871550E-10
         8.362236E-12    1.289638E-13    1.302380E-15   -8.553127E-20   -5.275588E-19   -2.235320E-20   -7.083225E-22   -1.869692E-23   -4.211757E-25   -8.285839E-27
        -1.483536E-28
  24    -2.387808E-30   -1.563210E-28   -9.363529E-27   -4.917110E-25   -2.203890E-23   -8.250808E-22   -2.517104E-20   -5.580931E-19   -6.391717E-20    1.088410E-15
         9.066686E-14    4.795034E-12    1.743745E-10    4.236140E-09    6.198081E-08    4.001271E-07    6.198081E-08    4.236140E-09    1.743745E-10    4.795035E-12
         9.066664E-14    1.088298E-15   -8.553127E-20   -5.600336E-19   -2.528131E-20   -8.296002E-22   -2.218197E-23   -4.953788E-25   -9.442649E-27   -1.578062E-28
        -2.413169E-30
  25    -2.788459E-32   -2.187356E-30   -1.575562E-28   -9.953684E-27   -5.349839E-25   -2.387332E-23   -8.682138E-22   -2.516734E-20   -5.258635E-19   -1.717654E-18
         6.231282E-16    4.381439E-14    1.820442E-12    4.844113E-11    7.622654E-10    5.248844E-09    7.622654E-10    4.844113E-11    1.820441E-12    4.381422E-14
         6.230668E-16   -1.732835E-18   -5.275588E-19   -2.528131E-20   -8.734865E-22   -2.405443E-23   -5.398441E-25   -1.005976E-26   -1.595067E-28   -2.218620E-30
        -2.834196E-32
  26    -2.269504E-34   -2.212821E-32   -1.982259E-30   -1.547722E-28   -1.017494E-26   -5.490011E-25   -2.386837E-23   -8.248039E-22   -2.226560E-20   -4.361516E-19
        -3.159873E-18    2.267568E-16    1.381315E-14    4.252992E-13    7.266424E-12    5.313844E-11    7.266424E-12    4.252988E-13    1.381303E-14    2.267329E-16
        -3.166913E-18   -4.371926E-19   -2.235320E-20   -8.296002E-22   -2.405443E-23   -5.544102E-25   -1.029781E-26   -1.570310E-28   -2.017035E-30   -2.259377E-32
        -2.326611E-34
  27    -1.191298E-36   -1.550098E-34   -1.833962E-32   -1.849657E-30   -1.531231E-28   -1.017215E-26   -5.347392E-25   -2.202685E-23   -7.049506E-22   -1.731031E-20
        -3.112874E-19   -3.069944E-18    3.929127E-17    2.539659E-15    5.271958E-14    4.210855E-13    5.271952E-14    2.539631E-15    3.928394E-17   -3.072125E-18
        -3.117269E-19   -1.735952E-20   -7.083225E-22   -2.218197E-23   -5.398441E-25   -1.029781E-26   -1.555160E-28   -1.885979E-30   -1.879402E-32   -1.599089E-34
        -1.240016E-36
  28    -3.231292E-39   -6.817603E-37   -1.208980E-34   -1.699681E-32   -1.848965E-30   -1.546773E-28   -9.946283E-27   -4.913316E-25   -1.859377E-23   -5.360475E-22
        -1.165489E-20   -1.862298E-19   -1.965018E-18   -5.960591E-18    1.918117E-16    2.202222E-15    1.918090E-16   -5.962033E-18   -1.965496E-18   -1.863544E-19
        -1.167443E-20   -5.378331E-22   -1.869692E-23   -4.953788E-25   -1.005976E-26   -1.570310E-28   -1.885979E-30   -1.744771E-32   -1.252770E-34   -7.175403E-37
        -3.503760E-39
  29     3.499145E-43   -1.359778E-39   -5.349251E-37   -1.208263E-34   -1.832344E-32   -1.980220E-30   -1.573877E-28   -9.354060E-27   -4.185513E-25   -1.409119E-23
        -3.547169E-22   -6.618055E-21   -9.082141E-20   -8.882573E-19   -4.961501E-18   -1.118748E-17   -4.961632E-18   -8.883330E-19   -9.084551E-20   -6.623325E-21
        -3.554000E-22   -1.414409E-23   -4.211757E-25   -9.442649E-27   -1.595067E-28   -2.017035E-30   -1.879402E-32   -1.252770E-34   -5.663927E-37   -1.534786E-39
        -5.627740E-43
  30     2.217081E-44    2.041977E-42   -1.357163E-39   -6.806446E-37   -1.547633E-34   -2.209411E-32   -2.184205E-30   -1.561225E-28   -8.228210E-27   -3.215931E-25
        -9.284255E-24   -1.961950E-22   -3.022621E-21   -3.394818E-20   -2.482775E-19   -1.081714E-18   -2.482832E-19   -3.395144E-20   -3.023572E-21   -1.963743E-22
        -9.304178E-24   -3.229291E-25   -8.285839E-27   -1.578062E-28   -2.218620E-30   -2.259377E-32   -1.599089E-34   -7.175403E-37   -1.534786E-39    1.484352E-42
         2.068917E-44
  31      0.00000        2.219684E-44    3.777275E-43   -3.218873E-39   -1.188176E-36   -2.264557E-34   -2.783257E-32   -2.384103E-30   -1.472089E-28   -6.632175E-27
        -2.176255E-25   -5.148718E-24   -8.725328E-23   -1.066727E-21   -8.801220E-21   -4.638910E-20   -8.801434E-21   -1.066844E-21   -8.728507E-23   -5.154014E-24
        -2.181407E-25   -6.662481E-27   -1.483536E-28   -2.413169E-30   -2.834196E-32   -2.326611E-34   -1.240016E-36   -3.503760E-39   -5.627740E-43    2.068917E-44
          0.00000    

 CONCENTRATION WILL BE SAVED ON UNIT 1030 AT END OF TIME STEP   63, STRESS PERIOD    2


  MASS BUDGET FOR ENTIRE MODEL AT END OF TIME STEP   63, STRESS PERIOD   2
  ---------------------------------------------------------------------------------------------------

     CUMULATIVE MASS      M       RATES FOR THIS TIME STEP      M/T          PACKAGE NAME    
     ------------------                 ------------------------                     ----------------

           IN:                                      IN:
           ---                                      ---
     STORAGE-AQUEOUS =  7005844624.8927       STORAGE-AQUEOUS =     1229141.1762     MST                              
                 WEL =  7884000000.0000                   WEL =           0.0000     SSM_WEL-1                        
                 CHD =           0.0000                   CHD =           0.0000     SSM_CHD-1                        

            TOTAL IN = 14889844624.8927              TOTAL IN =     1229141.1762

          OUT:                                     OUT:
          ----                                     ----
     STORAGE-AQUEOUS =  7888710823.4247       STORAGE-AQUEOUS =          26.9149     MST                              
                 WEL =  7001133801.4681                   WEL =     1229114.2613     SSM_WEL-1                        
                 CHD =       7.5562E-18                   CHD =           0.0000     SSM_CHD-1                        

           TOTAL OUT = 14889844624.8928             TOTAL OUT =     1229141.1762

            IN - OUT =      -1.0300E-04              IN - OUT =      -3.3295E-08

 PERCENT DISCREPANCY =          -0.00     PERCENT DISCREPANCY =          -0.00




         TIME SUMMARY AT END OF TIME STEP   63 IN STRESS PERIOD    2
                    SECONDS     MINUTES      HOURS       DAYS        YEARS
                    -----------------------------------------------------------
   TIME STEP LENGTH 2.16991E+06  36165.      602.75      25.115     6.87602E-02
 STRESS PERIOD TIME 1.36704E+08 2.27840E+06  37973.      1582.2      4.3319    
         TOTAL TIME 2.15544E+08 3.59240E+06  59873.      2494.7      6.8302    


end timestep


start timestep kper="2" kstp="64" mode="normal"

 UBDSV1 SAVING  STORAGE-AQUEOUS ON UNIT   1029 AT TIME STEP     64, STRESS PERIOD      2
 UBDSV1 SAVING     FLOW-JA-FACE ON UNIT   1029 AT TIME STEP     64, STRESS PERIOD      2
 UBDSV06 SAVING  SOURCE-SINK MIX IN MODEL GWT_P06-MF6      PACKAGE GWT_P06-MF6     CONNECTED TO MODEL GWT_P06-MF6      PACKAGE SSM              ON UNIT   1029 AT TIME STEP     64, STRESS PERIOD      2
1
  CONCENTRATION IN LAYER   1 AT END OF TIME STEP  64 IN STRESS PERIOD    2
  ---------------------------------------------------------------------------

                1               2               3               4               5               6               7               8               9              10
               11              12              13              14              15              16              17              18              19              20
               21              22              23              24              25              26              27              28              29              30
               31
 ................................................................................................................................................................................................................................................................................................................................................................................................................................................................................................................
   1      0.00000        2.066380E-44   -1.224630E-42   -3.853532E-39   -1.328512E-36   -2.464021E-34   -2.978112E-32   -2.519464E-30   -1.540033E-28   -6.879793E-27
        -2.241705E-25   -5.274262E-24   -8.901581E-23   -1.084444E-21   -8.914452E-21   -4.671032E-20   -8.914259E-21   -1.084346E-21   -8.899071E-23   -5.270131E-24
        -2.237576E-25   -6.854535E-27   -1.530102E-28   -2.493292E-30   -2.930686E-32   -2.404516E-34   -1.277492E-36   -3.566643E-39   -2.576086E-43    2.224662E-44
          0.00000    
   2     2.066380E-44    1.176714E-42   -1.713941E-39   -7.699001E-37   -1.693129E-34   -2.373173E-32   -2.315944E-30   -1.638364E-28   -8.559356E-27   -3.320165E-25
        -9.524227E-24   -2.002411E-22   -3.072573E-21   -3.436229E-20   -2.499305E-19   -1.079671E-18   -2.499254E-19   -3.435956E-20   -3.071819E-21   -2.001008E-22
        -9.508202E-24   -3.308973E-25   -8.509050E-27   -1.623099E-28   -2.283673E-30   -2.324912E-32   -1.642123E-34   -7.324806E-37   -1.529983E-39    1.766730E-42
         2.227468E-44
   3    -1.224630E-42   -1.713941E-39   -6.082840E-37   -1.326222E-34   -1.973166E-32   -2.104714E-30   -1.655724E-28   -9.754890E-27   -4.331382E-25   -1.448357E-23
        -3.624666E-22   -6.728139E-21   -9.178176E-20   -8.867949E-19   -4.790407E-18   -9.586436E-18   -4.790289E-18   -8.867310E-19   -9.176256E-20   -6.724003E-21
        -3.619146E-22   -1.443898E-23   -4.308294E-25   -9.673872E-27   -1.635671E-28   -2.068820E-30   -1.926081E-32   -1.280660E-34   -5.753940E-37   -1.527215E-39
        -2.279022E-43
   4    -3.853532E-39   -7.699001E-37   -1.326222E-34   -1.831439E-32   -1.967348E-30   -1.629592E-28   -1.039101E-26   -5.094649E-25   -1.914924E-23   -5.486428E-22
        -1.185511E-20   -1.876384E-19   -1.922083E-18   -3.994844E-18    2.273237E-16    2.463831E-15    2.273261E-16   -3.993610E-18   -1.921697E-18   -1.875401E-19
        -1.183923E-20   -5.471253E-22   -1.905761E-23   -5.057226E-25   -1.028235E-26   -1.606367E-28   -1.929862E-30   -1.784724E-32   -1.279911E-34   -7.313072E-37
        -3.553481E-39
   5    -1.328512E-36   -1.693129E-34   -1.973166E-32   -1.967348E-30   -1.613675E-28   -1.063550E-26   -5.551608E-25   -2.271973E-23   -7.226241E-22   -1.761894E-20
        -3.122788E-19   -2.856846E-18    5.012572E-17    2.842945E-15    5.751534E-14    4.535936E-13    5.751539E-14    2.842969E-15    5.013184E-17   -2.855100E-18
        -3.119187E-19   -1.757670E-20   -7.195907E-22   -2.257429E-23   -5.502006E-25   -1.050963E-26   -1.589071E-28   -1.929145E-30   -1.924398E-32   -1.639545E-34
        -1.274205E-36
   6    -2.464021E-34   -2.373173E-32   -2.104714E-30   -1.629592E-28   -1.063550E-26   -5.701196E-25   -2.463745E-23   -8.463484E-22   -2.267303E-20   -4.352913E-19
        -2.550677E-18    2.637139E-16    1.523425E-14    4.605312E-13    7.779888E-12    5.637976E-11    7.779888E-12    4.605315E-13    1.523435E-14    2.637340E-16
        -2.544819E-18   -4.343853E-19   -2.259296E-20   -8.417715E-22   -2.445331E-23   -5.645988E-25   -1.050677E-26   -1.605390E-28   -2.066709E-30   -2.321365E-32
        -2.399341E-34
   7    -2.978112E-32   -2.315944E-30   -1.655724E-28   -1.039101E-26   -5.551608E-25   -2.463745E-23   -8.911085E-22   -2.563195E-20   -5.225123E-19   -5.445931E-19
         7.079530E-16    4.799830E-14    1.962776E-12    5.164717E-11    8.050799E-10    5.496209E-09    8.050799E-10    5.164717E-11    1.962777E-12    4.799847E-14
         7.080062E-16   -5.311225E-19   -5.209307E-19   -2.552074E-20   -8.857682E-22   -2.444827E-23   -5.499506E-25   -1.027476E-26   -1.633936E-28   -2.280413E-30
        -2.925276E-32
   8    -2.519464E-30   -1.638364E-28   -9.754890E-27   -5.094649E-25   -2.271973E-23   -8.463484E-22   -2.563195E-20   -5.535148E-19    1.531174E-18    1.225717E-15
         9.897829E-14    5.155365E-12    1.853098E-10    4.455927E-09    6.459515E-08    4.134629E-07    6.459515E-08    4.455927E-09    1.853098E-10    5.155366E-12
         9.897854E-14    1.225820E-15    1.551749E-18   -5.515673E-19   -2.551701E-20   -8.414909E-22   -2.256203E-23   -5.053351E-25   -9.664163E-27   -1.621056E-28
        -2.489460E-30
   9    -1.540033E-28   -8.559356E-27   -4.331382E-25   -1.914924E-23   -7.226241E-22   -2.267303E-20   -5.225123E-19    1.531174E-18    1.463311E-15    1.405676E-13
         8.975595E-12    4.104760E-10    1.328536E-08    2.903347E-07    3.862646E-06    2.287700E-05    3.862646E-06    2.903347E-07    1.328536E-08    4.104760E-10
         8.975594E-12    1.405679E-13    1.463444E-15    1.552596E-18   -5.208108E-19   -2.258469E-20   -7.192098E-22   -1.904441E-23   -4.304613E-25   -8.500365E-27
        -1.528272E-28
  10    -6.879793E-27   -3.320165E-25   -1.448357E-23   -5.486428E-22   -1.761894E-20   -4.352913E-19   -5.445931E-19    1.225717E-15    1.405676E-13    1.075582E-11
         6.013788E-10    2.444689E-08    7.020295E-07    1.361450E-05    1.623420E-04    8.720551E-04    1.623420E-04    1.361450E-05    7.020295E-07    2.444689E-08
         6.013788E-10    1.075582E-11    1.405679E-13    1.225828E-15   -5.294423E-19   -4.342463E-19   -1.756933E-20   -5.468354E-22   -1.442984E-23   -3.306547E-25
        -6.848794E-27
  11    -2.241705E-25   -9.524227E-24   -3.624666E-22   -1.185511E-20   -3.122788E-19   -2.550677E-18    7.079530E-16    9.897829E-14    8.975595E-12    6.013788E-10
         2.974456E-08    1.056180E-06    2.607161E-05    4.315961E-04    4.443506E-03    2.099764E-02    4.443506E-03    4.315961E-04    2.607161E-05    1.056180E-06
         2.974456E-08    6.013788E-10    8.975593E-12    9.897850E-14    7.080136E-16   -2.543645E-18   -3.118376E-19   -1.183542E-20   -3.617754E-22   -9.504000E-24
        -2.236457E-25
  12    -5.274262E-24   -2.002411E-22   -6.728139E-21   -1.876384E-19   -2.856846E-18    2.637139E-16    4.799830E-14    5.155365E-12    4.104760E-10    2.444689E-08
         1.056180E-06    3.182840E-05    6.452799E-04    8.592382E-03    7.196438E-02    0.284916        7.196438E-02    8.592382E-03    6.452799E-04    3.182840E-05
         1.056180E-06    2.444689E-08    4.104760E-10    5.155365E-12    4.799847E-14    2.637377E-16   -2.854663E-18   -1.875132E-19   -6.722825E-21   -2.000597E-22
        -5.268886E-24
  13    -8.901581E-23   -3.072573E-21   -9.178176E-20   -1.922083E-18    5.012572E-17    1.523425E-14    1.962776E-12    1.853098E-10    1.328536E-08    7.020295E-07
         2.607161E-05    6.452799E-04    1.016170E-02    9.998935E-02    0.622035         1.91641        0.622035        9.998935E-02    1.016170E-02    6.452799E-04
         2.607161E-05    7.020295E-07    1.328536E-08    1.853098E-10    1.962777E-12    1.523436E-14    5.013304E-17   -1.921604E-18   -9.175751E-20   -3.071613E-21
        -8.898362E-23
  14    -1.084444E-21   -3.436229E-20   -8.867949E-19   -3.994844E-18    2.842945E-15    4.605312E-13    5.164717E-11    4.455927E-09    2.903347E-07    1.361450E-05
         4.315961E-04    8.592382E-03    9.998935E-02    0.664938         2.74645         6.06831         2.74645        0.664938        9.998935E-02    8.592382E-03
         4.315961E-04    1.361450E-05    2.903347E-07    4.455927E-09    5.164717E-11    4.605316E-13    2.842972E-15   -3.993394E-18   -8.867188E-19   -3.435901E-20
        -1.084325E-21
  15    -8.914452E-21   -2.499305E-19   -4.790407E-18    2.273237E-16    5.751534E-14    7.779888E-12    8.050799E-10    6.459515E-08    3.862646E-06    1.623420E-04
         4.443506E-03    7.196438E-02    0.622035         2.74645         7.60214         10.5088         7.60214         2.74645        0.622035        7.196438E-02
         4.443506E-03    1.623420E-04    3.862646E-06    6.459515E-08    8.050799E-10    7.779888E-12    5.751540E-14    2.273265E-16   -4.790275E-18   -2.499248E-19
        -8.914236E-21
  16    -4.671032E-20   -1.079671E-18   -9.586436E-18    2.463831E-15    4.535936E-13    5.637976E-11    5.496209E-09    4.134629E-07    2.287700E-05    8.720551E-04
         2.099764E-02    0.284916         1.91641         6.06831         10.5088         13.7121         10.5088         6.06831         1.91641        0.284916    
         2.099764E-02    8.720551E-04    2.287700E-05    4.134629E-07    5.496209E-09    5.637976E-11    4.535936E-13    2.463831E-15   -9.586437E-18   -1.079671E-18
        -4.671032E-20
  17    -8.914259E-21   -2.499254E-19   -4.790289E-18    2.273261E-16    5.751539E-14    7.779888E-12    8.050799E-10    6.459515E-08    3.862646E-06    1.623420E-04
         4.443506E-03    7.196438E-02    0.622035         2.74645         7.60214         10.5088         7.60214         2.74645        0.622035        7.196438E-02
         4.443506E-03    1.623420E-04    3.862646E-06    6.459515E-08    8.050799E-10    7.779888E-12    5.751534E-14    2.273237E-16   -4.790407E-18   -2.499305E-19
        -8.914452E-21
  18    -1.084346E-21   -3.435956E-20   -8.867310E-19   -3.993610E-18    2.842969E-15    4.605315E-13    5.164717E-11    4.455927E-09    2.903347E-07    1.361450E-05
         4.315961E-04    8.592382E-03    9.998935E-02    0.664938         2.74645         6.06831         2.74645        0.664938        9.998935E-02    8.592382E-03
         4.315961E-04    1.361450E-05    2.903347E-07    4.455927E-09    5.164717E-11    4.605312E-13    2.842945E-15   -3.994844E-18   -8.867949E-19   -3.436229E-20
        -1.084444E-21
  19    -8.899071E-23   -3.071819E-21   -9.176256E-20   -1.921697E-18    5.013184E-17    1.523435E-14    1.962777E-12    1.853098E-10    1.328536E-08    7.020295E-07
         2.607161E-05    6.452799E-04    1.016170E-02    9.998935E-02    0.622035         1.91641        0.622035        9.998935E-02    1.016170E-02    6.452799E-04
         2.607161E-05    7.020295E-07    1.328536E-08    1.853098E-10    1.962776E-12    1.523425E-14    5.012572E-17   -1.922083E-18   -9.178176E-20   -3.072573E-21
        -8.901581E-23
  20    -5.270131E-24   -2.001008E-22   -6.724003E-21   -1.875401E-19   -2.855100E-18    2.637340E-16    4.799847E-14    5.155366E-12    4.104760E-10    2.444689E-08
         1.056180E-06    3.182840E-05    6.452799E-04    8.592382E-03    7.196438E-02    0.284916        7.196438E-02    8.592382E-03    6.452799E-04    3.182840E-05
         1.056180E-06    2.444689E-08    4.104760E-10    5.155365E-12    4.799830E-14    2.637139E-16   -2.856846E-18   -1.876384E-19   -6.728139E-21   -2.002411E-22
        -5.274262E-24
  21    -2.237576E-25   -9.508202E-24   -3.619146E-22   -1.183923E-20   -3.119187E-19   -2.544819E-18    7.080062E-16    9.897854E-14    8.975594E-12    6.013788E-10
         2.974456E-08    1.056180E-06    2.607161E-05    4.315961E-04    4.443506E-03    2.099764E-02    4.443506E-03    4.315961E-04    2.607161E-05    1.056180E-06
         2.974456E-08    6.013788E-10    8.975595E-12    9.897829E-14    7.079530E-16   -2.550677E-18   -3.122788E-19   -1.185511E-20   -3.624666E-22   -9.524227E-24
        -2.241705E-25
  22    -6.854535E-27   -3.308973E-25   -1.443898E-23   -5.471253E-22   -1.757670E-20   -4.343853E-19   -5.311225E-19    1.225820E-15    1.405679E-13    1.075582E-11
         6.013788E-10    2.444689E-08    7.020295E-07    1.361450E-05    1.623420E-04    8.720551E-04    1.623420E-04    1.361450E-05    7.020295E-07    2.444689E-08
         6.013788E-10    1.075582E-11    1.405676E-13    1.225717E-15   -5.445931E-19   -4.352913E-19   -1.761894E-20   -5.486428E-22   -1.448357E-23   -3.320165E-25
        -6.879793E-27
  23    -1.530102E-28   -8.509050E-27   -4.308294E-25   -1.905761E-23   -7.195907E-22   -2.259296E-20   -5.209307E-19    1.551749E-18    1.463444E-15    1.405679E-13
         8.975593E-12    4.104760E-10    1.328536E-08    2.903347E-07    3.862646E-06    2.287700E-05    3.862646E-06    2.903347E-07    1.328536E-08    4.104760E-10
         8.975595E-12    1.405676E-13    1.463311E-15    1.531174E-18   -5.225123E-19   -2.267303E-20   -7.226241E-22   -1.914924E-23   -4.331382E-25   -8.559356E-27
        -1.540033E-28
  24    -2.493292E-30   -1.623099E-28   -9.673872E-27   -5.057226E-25   -2.257429E-23   -8.417715E-22   -2.552074E-20   -5.515673E-19    1.552596E-18    1.225828E-15
         9.897850E-14    5.155365E-12    1.853098E-10    4.455927E-09    6.459515E-08    4.134629E-07    6.459515E-08    4.455927E-09    1.853098E-10    5.155365E-12
         9.897829E-14    1.225717E-15    1.531174E-18   -5.535148E-19   -2.563195E-20   -8.463484E-22   -2.271973E-23   -5.094649E-25   -9.754890E-27   -1.638364E-28
        -2.519464E-30
  25    -2.930686E-32   -2.283673E-30   -1.635671E-28   -1.028235E-26   -5.502006E-25   -2.445331E-23   -8.857682E-22   -2.551701E-20   -5.208108E-19   -5.294423E-19
         7.080136E-16    4.799847E-14    1.962777E-12    5.164717E-11    8.050799E-10    5.496209E-09    8.050799E-10    5.164717E-11    1.962776E-12    4.799830E-14
         7.079530E-16   -5.445931E-19   -5.225123E-19   -2.563195E-20   -8.911085E-22   -2.463745E-23   -5.551608E-25   -1.039101E-26   -1.655724E-28   -2.315944E-30
        -2.978112E-32
  26    -2.404516E-34   -2.324912E-32   -2.068820E-30   -1.606367E-28   -1.050963E-26   -5.645988E-25   -2.444827E-23   -8.414909E-22   -2.258469E-20   -4.342463E-19
        -2.543645E-18    2.637377E-16    1.523436E-14    4.605316E-13    7.779888E-12    5.637976E-11    7.779888E-12    4.605312E-13    1.523425E-14    2.637139E-16
        -2.550677E-18   -4.352913E-19   -2.267303E-20   -8.463484E-22   -2.463745E-23   -5.701196E-25   -1.063550E-26   -1.629592E-28   -2.104714E-30   -2.373173E-32
        -2.464021E-34
  27    -1.277492E-36   -1.642123E-34   -1.926081E-32   -1.929862E-30   -1.589071E-28   -1.050677E-26   -5.499506E-25   -2.256203E-23   -7.192098E-22   -1.756933E-20
        -3.118376E-19   -2.854663E-18    5.013304E-17    2.842972E-15    5.751540E-14    4.535936E-13    5.751534E-14    2.842945E-15    5.012572E-17   -2.856846E-18
        -3.122788E-19   -1.761894E-20   -7.226241E-22   -2.271973E-23   -5.551608E-25   -1.063550E-26   -1.613675E-28   -1.967348E-30   -1.973166E-32   -1.693129E-34
        -1.328512E-36
  28    -3.566643E-39   -7.324806E-37   -1.280660E-34   -1.784724E-32   -1.929145E-30   -1.605390E-28   -1.027476E-26   -5.053351E-25   -1.904441E-23   -5.468354E-22
        -1.183542E-20   -1.875132E-19   -1.921604E-18   -3.993394E-18    2.273265E-16    2.463831E-15    2.273237E-16   -3.994844E-18   -1.922083E-18   -1.876384E-19
        -1.185511E-20   -5.486428E-22   -1.914924E-23   -5.094649E-25   -1.039101E-26   -1.629592E-28   -1.967348E-30   -1.831439E-32   -1.326222E-34   -7.699001E-37
        -3.853532E-39
  29    -2.576086E-43   -1.529983E-39   -5.753940E-37   -1.279911E-34   -1.924398E-32   -2.066709E-30   -1.633936E-28   -9.664163E-27   -4.304613E-25   -1.442984E-23
        -3.617754E-22   -6.722825E-21   -9.175751E-20   -8.867188E-19   -4.790275E-18   -9.586437E-18   -4.790407E-18   -8.867949E-19   -9.178176E-20   -6.728139E-21
        -3.624666E-22   -1.448357E-23   -4.331382E-25   -9.754890E-27   -1.655724E-28   -2.104714E-30   -1.973166E-32   -1.326222E-34   -6.082840E-37   -1.713941E-39
        -1.224630E-42
  30     2.224662E-44    1.766730E-42   -1.527215E-39   -7.313072E-37   -1.639545E-34   -2.321365E-32   -2.280413E-30   -1.621056E-28   -8.500365E-27   -3.306547E-25
        -9.504000E-24   -2.000597E-22   -3.071613E-21   -3.435901E-20   -2.499248E-19   -1.079671E-18   -2.499305E-19   -3.436229E-20   -3.072573E-21   -2.002411E-22
        -9.524227E-24   -3.320165E-25   -8.559356E-27   -1.638364E-28   -2.315944E-30   -2.373173E-32   -1.693129E-34   -7.699001E-37   -1.713941E-39    1.176714E-42
         2.066380E-44
  31      0.00000        2.227468E-44   -2.279022E-43   -3.553481E-39   -1.274205E-36   -2.399341E-34   -2.925276E-32   -2.489460E-30   -1.528272E-28   -6.848794E-27
        -2.236457E-25   -5.268886E-24   -8.898362E-23   -1.084325E-21   -8.914236E-21   -4.671032E-20   -8.914452E-21   -1.084444E-21   -8.901581E-23   -5.274262E-24
        -2.241705E-25   -6.879793E-27   -1.540033E-28   -2.519464E-30   -2.978112E-32   -2.464021E-34   -1.328512E-36   -3.853532E-39   -1.224630E-42    2.066380E-44
          0.00000    

 CONCENTRATION WILL BE SAVED ON UNIT 1030 AT END OF TIME STEP   64, STRESS PERIOD    2


  MASS BUDGET FOR ENTIRE MODEL AT END OF TIME STEP   64, STRESS PERIOD   2
  ---------------------------------------------------------------------------------------------------

     CUMULATIVE MASS      M       RATES FOR THIS TIME STEP      M/T          PACKAGE NAME    
     ------------------                 ------------------------                     ----------------

           IN:                                      IN:
           ---                                      ---
     STORAGE-AQUEOUS =  7035599293.3155       STORAGE-AQUEOUS =     1184752.0943     MST                              
                 WEL =  7884000000.0000                   WEL =           0.0000     SSM_WEL-1                        
                 CHD =           0.0000                   CHD =           0.0000     SSM_CHD-1                        

            TOTAL IN = 14919599293.3155              TOTAL IN =     1184752.0943

          OUT:                                     OUT:
          ----                                     ----
     STORAGE-AQUEOUS =  7888711444.1938       STORAGE-AQUEOUS =          24.7174     MST                              
                 WEL =  7030887849.1217                   WEL =     1184727.3769     SSM_WEL-1                        
                 CHD =       7.5562E-18                   CHD =           0.0000     SSM_CHD-1                        

           TOTAL OUT = 14919599293.3156             TOTAL OUT =     1184752.0943

            IN - OUT =      -1.0300E-04              IN - OUT =      -3.1665E-08

 PERCENT DISCREPANCY =          -0.00     PERCENT DISCREPANCY =          -0.00




         TIME SUMMARY AT END OF TIME STEP   64 IN STRESS PERIOD    2
                    SECONDS     MINUTES      HOURS       DAYS        YEARS
                    -----------------------------------------------------------
   TIME STEP LENGTH 2.16991E+06  36165.      602.75      25.115     6.87602E-02
 STRESS PERIOD TIME 1.38874E+08 2.31457E+06  38576.      1607.3      4.4007    
         TOTAL TIME 2.17714E+08 3.62857E+06  60476.      2519.8      6.8989    


end timestep


start timestep kper="2" kstp="65" mode="normal"

 UBDSV1 SAVING  STORAGE-AQUEOUS ON UNIT   1029 AT TIME STEP     65, STRESS PERIOD      2
 UBDSV1 SAVING     FLOW-JA-FACE ON UNIT   1029 AT TIME STEP     65, STRESS PERIOD      2
 UBDSV06 SAVING  SOURCE-SINK MIX IN MODEL GWT_P06-MF6      PACKAGE GWT_P06-MF6     CONNECTED TO MODEL GWT_P06-MF6      PACKAGE SSM              ON UNIT   1029 AT TIME STEP     65, STRESS PERIOD      2
1
  CONCENTRATION IN LAYER   1 AT END OF TIME STEP  65 IN STRESS PERIOD    2
  ---------------------------------------------------------------------------

                1               2               3               4               5               6               7               8               9              10
               11              12              13              14              15              16              17              18              19              20
               21              22              23              24              25              26              27              28              29              30
               31
 ................................................................................................................................................................................................................................................................................................................................................................................................................................................................................................................
   1      0.00000        2.056781E-44   -1.952815E-42   -4.227943E-39   -1.422140E-36   -2.608271E-34   -3.128241E-32   -2.629727E-30   -1.598336E-28   -7.102972E-27
        -2.303362E-25   -5.396753E-24   -9.077241E-23   -1.102223E-21   -9.027765E-21   -4.702758E-20   -9.027570E-21   -1.102124E-21   -9.074700E-23   -5.392559E-24
        -2.299157E-25   -7.077143E-27   -1.588136E-28   -2.602721E-30   -3.079073E-32   -2.546281E-34   -1.368723E-36   -3.925965E-39   -9.286457E-43    2.225772E-44
          0.00000    
   2     2.056781E-44    8.351952E-43   -1.905927E-39   -8.252811E-37   -1.791807E-34   -2.491850E-32   -2.416900E-30   -1.700606E-28   -8.840348E-27   -3.413112E-25
        -9.748377E-24   -2.041636E-22   -3.121955E-21   -3.476932E-20   -2.514483E-19   -1.076589E-18   -2.514432E-19   -3.476657E-20   -3.121194E-21   -2.040217E-22
        -9.732107E-24   -3.401706E-25   -8.788867E-27   -1.684919E-28   -2.383594E-30   -2.441830E-32   -1.738715E-34   -7.861560E-37   -1.712615E-39    1.459246E-42
         2.228794E-44
   3    -1.952815E-42   -1.905927E-39   -6.525874E-37   -1.403269E-34   -2.070921E-32   -2.195647E-30   -1.718332E-28   -1.007571E-26   -4.453766E-25   -1.482944E-23
        -3.696307E-22   -6.833292E-21   -9.267967E-20   -8.838492E-19   -4.595875E-18   -7.824484E-18   -4.595758E-18   -8.837849E-19   -9.266035E-20   -6.829121E-21
        -3.690722E-22   -1.478414E-23   -4.430221E-25   -9.992762E-27   -1.697718E-28   -2.158604E-30   -2.022137E-32   -1.355873E-34   -6.182180E-37   -1.709686E-39
        -8.969343E-43
   4    -4.227943E-39   -8.252811E-37   -1.403269E-34   -1.921782E-32   -2.051721E-30   -1.690774E-28   -1.073136E-26   -5.238778E-25   -1.961011E-23   -5.595925E-22
        -1.203506E-20   -1.887433E-19   -1.870580E-18   -1.815283E-18    2.657838E-16    2.743993E-15    2.657862E-16   -1.814042E-18   -1.870193E-18   -1.886445E-19
        -1.201905E-20   -5.580566E-22   -1.951699E-23   -5.200598E-25   -1.062008E-26   -1.666898E-28   -2.013039E-30   -1.873390E-32   -1.355090E-34   -7.849224E-37
        -3.912022E-39
   5    -1.422140E-36   -1.791807E-34   -2.070921E-32   -2.051721E-30   -1.674062E-28   -1.098247E-26   -5.708332E-25   -2.326766E-23   -7.370968E-22   -1.787483E-20
        -3.122970E-19   -2.611912E-18    6.197813E-17    3.169762E-15    6.262964E-14    4.879482E-13    6.262969E-14    3.169785E-15    6.198425E-17   -2.610164E-18
        -3.119354E-19   -1.783224E-20   -7.340258E-22   -2.311982E-23   -5.657715E-25   -1.085354E-26   -1.648767E-28   -2.012298E-30   -2.020388E-32   -1.736020E-34
        -1.365265E-36
   6    -2.608271E-34   -2.491850E-32   -2.195647E-30   -1.690774E-28   -1.098247E-26   -5.861940E-25   -2.523147E-23   -8.632832E-22   -2.298534E-20   -4.322804E-19
        -1.859717E-18    3.039628E-16    1.676017E-14    4.979570E-13    8.320103E-12    5.975916E-11    8.320103E-12    4.979574E-13    1.676027E-14    3.039828E-16
        -1.853865E-18   -4.313710E-19   -2.290460E-20   -8.586483E-22   -2.504426E-23   -5.805595E-25   -1.085061E-26   -1.665891E-28   -2.156420E-30   -2.438142E-32
        -2.540870E-34
   7    -3.128241E-32   -2.416900E-30   -1.718332E-28   -1.073136E-26   -5.708332E-25   -2.523147E-23   -9.089210E-22   -2.597206E-20   -5.157796E-19    7.702756E-19
         8.000847E-16    5.247864E-14    2.113471E-12    5.500592E-11    8.494917E-10    5.750392E-09    8.494917E-10    5.500592E-11    2.113472E-12    5.247880E-14
         8.001374E-16    7.836321E-19   -5.141924E-19   -2.585991E-20   -9.035127E-22   -2.503913E-23   -5.655161E-25   -1.061229E-26   -1.695931E-28   -2.380222E-30
        -3.073449E-32
   8    -2.629727E-30   -1.700606E-28   -1.007571E-26   -5.238778E-25   -2.326766E-23   -8.632832E-22   -2.597206E-20   -5.450649E-19    3.315724E-18    1.374637E-15
         1.078621E-13    5.535857E-12    1.967237E-10    4.682799E-09    6.726559E-08    4.269461E-07    6.726559E-08    4.682799E-09    1.967237E-10    5.535858E-12
         1.078623E-13    1.374738E-15    3.336117E-18   -5.431107E-19   -2.585615E-20   -8.583641E-22   -2.310734E-23   -5.196641E-25   -9.982808E-27   -1.682815E-28
        -2.598760E-30
   9    -1.598336E-28   -8.840348E-27   -4.453766E-25   -1.961011E-23   -7.370968E-22   -2.298534E-20   -5.157796E-19    3.315724E-18    1.637619E-15    1.529585E-13
         9.622176E-12    4.347496E-10    1.391594E-08    3.010331E-07    3.968459E-06    2.330879E-05    3.968459E-06    3.010331E-07    1.391594E-08    4.347497E-10
         9.622175E-12    1.529587E-13    1.637751E-15    3.336956E-18   -5.140722E-19   -2.289626E-20   -7.336401E-22   -1.950357E-23   -4.426465E-25   -8.779971E-27
        -1.586253E-28
  10    -7.102972E-27   -3.413112E-25   -1.482944E-23   -5.595925E-22   -1.787483E-20   -4.322804E-19    7.702756E-19    1.374637E-15    1.529585E-13    1.152431E-11
         6.361641E-10    2.555119E-08    7.254239E-07    1.392275E-05    1.645102E-04    8.765611E-04    1.645102E-04    1.392275E-05    7.254239E-07    2.555119E-08
         6.361641E-10    1.152431E-11    1.529587E-13    1.374746E-15    7.852956E-19   -4.312316E-19   -1.782481E-20   -5.577632E-22   -1.477486E-23   -3.399232E-25
        -7.071269E-27
  11    -2.303362E-25   -9.748377E-24   -3.696307E-22   -1.203506E-20   -3.122970E-19   -1.859717E-18    8.000847E-16    1.078621E-13    9.622176E-12    6.361641E-10
         3.106423E-08    1.089291E-06    2.657176E-05    4.352374E-04    4.441064E-03    2.082563E-02    4.441064E-03    4.352374E-04    2.657176E-05    1.089291E-06
         3.106423E-08    6.361641E-10    9.622174E-12    1.078623E-13    8.001447E-16   -1.852694E-18   -3.118541E-19   -1.201520E-20   -3.689313E-22   -9.727842E-24
        -2.298017E-25
  12    -5.396753E-24   -2.041636E-22   -6.833292E-21   -1.887433E-19   -2.611912E-18    3.039628E-16    5.247864E-14    5.535857E-12    4.347496E-10    2.555119E-08
         1.089291E-06    3.239815E-05    6.487532E-04    8.546335E-03    7.097367E-02    0.279097        7.097367E-02    8.546335E-03    6.487532E-04    3.239815E-05
         1.089291E-06    2.555119E-08    4.347497E-10    5.535857E-12    5.247880E-14    3.039864E-16   -2.609728E-18   -1.886175E-19   -6.827934E-21   -2.039801E-22
        -5.391297E-24
  13    -9.077241E-23   -3.121955E-21   -9.267967E-20   -1.870580E-18    6.197813E-17    1.676017E-14    2.113471E-12    1.967237E-10    1.391594E-08    7.254239E-07
         2.657176E-05    6.487532E-04    1.008708E-02    9.820959E-02    0.606485         1.85927        0.606485        9.820959E-02    1.008708E-02    6.487532E-04
         2.657176E-05    7.254239E-07    1.391594E-08    1.967237E-10    2.113472E-12    1.676028E-14    6.198543E-17   -1.870099E-18   -9.265528E-20   -3.120986E-21
        -9.073983E-23
  14    -1.102223E-21   -3.476932E-20   -8.838492E-19   -1.815283E-18    3.169762E-15    4.979570E-13    5.500592E-11    4.682799E-09    3.010331E-07    1.392275E-05
         4.352374E-04    8.546335E-03    9.820959E-02    0.646865         2.65803         5.85941         2.65803        0.646865        9.820959E-02    8.546335E-03
         4.352374E-04    1.392275E-05    3.010331E-07    4.682799E-09    5.500592E-11    4.979574E-13    3.169789E-15   -1.813825E-18   -8.837726E-19   -3.476602E-20
        -1.102103E-21
  15    -9.027765E-21   -2.514483E-19   -4.595875E-18    2.657838E-16    6.262964E-14    8.320103E-12    8.494917E-10    6.726559E-08    3.968459E-06    1.645102E-04
         4.441064E-03    7.097367E-02    0.606485         2.65803         7.33863         10.1350         7.33863         2.65803        0.606485        7.097367E-02
         4.441064E-03    1.645102E-04    3.968459E-06    6.726559E-08    8.494917E-10    8.320103E-12    6.262970E-14    2.657865E-16   -4.595743E-18   -2.514426E-19
        -9.027546E-21
  16    -4.702758E-20   -1.076589E-18   -7.824484E-18    2.743993E-15    4.879482E-13    5.975916E-11    5.750392E-09    4.269461E-07    2.330879E-05    8.765611E-04
         2.082563E-02    0.279097         1.85927         5.85941         10.1350         13.2178         10.1350         5.85941         1.85927        0.279097    
         2.082563E-02    8.765611E-04    2.330879E-05    4.269461E-07    5.750392E-09    5.975916E-11    4.879482E-13    2.743993E-15   -7.824484E-18   -1.076589E-18
        -4.702758E-20
  17    -9.027570E-21   -2.514432E-19   -4.595758E-18    2.657862E-16    6.262969E-14    8.320103E-12    8.494917E-10    6.726559E-08    3.968459E-06    1.645102E-04
         4.441064E-03    7.097367E-02    0.606485         2.65803         7.33863         10.1350         7.33863         2.65803        0.606485        7.097367E-02
         4.441064E-03    1.645102E-04    3.968459E-06    6.726559E-08    8.494917E-10    8.320103E-12    6.262964E-14    2.657838E-16   -4.595875E-18   -2.514483E-19
        -9.027765E-21
  18    -1.102124E-21   -3.476657E-20   -8.837849E-19   -1.814042E-18    3.169785E-15    4.979574E-13    5.500592E-11    4.682799E-09    3.010331E-07    1.392275E-05
         4.352374E-04    8.546335E-03    9.820959E-02    0.646865         2.65803         5.85941         2.65803        0.646865        9.820959E-02    8.546335E-03
         4.352374E-04    1.392275E-05    3.010331E-07    4.682799E-09    5.500592E-11    4.979570E-13    3.169762E-15   -1.815282E-18   -8.838491E-19   -3.476932E-20
        -1.102223E-21
  19    -9.074700E-23   -3.121194E-21   -9.266035E-20   -1.870193E-18    6.198425E-17    1.676027E-14    2.113472E-12    1.967237E-10    1.391594E-08    7.254239E-07
         2.657176E-05    6.487532E-04    1.008708E-02    9.820959E-02    0.606485         1.85927        0.606485        9.820959E-02    1.008708E-02    6.487532E-04
         2.657176E-05    7.254239E-07    1.391594E-08    1.967237E-10    2.113471E-12    1.676017E-14    6.197813E-17   -1.870580E-18   -9.267967E-20   -3.121955E-21
        -9.077241E-23
  20    -5.392559E-24   -2.040217E-22   -6.829121E-21   -1.886445E-19   -2.610164E-18    3.039828E-16    5.247880E-14    5.535858E-12    4.347497E-10    2.555119E-08
         1.089291E-06    3.239815E-05    6.487532E-04    8.546335E-03    7.097367E-02    0.279097        7.097367E-02    8.546335E-03    6.487532E-04    3.239815E-05
         1.089291E-06    2.555119E-08    4.347496E-10    5.535857E-12    5.247864E-14    3.039628E-16   -2.611912E-18   -1.887433E-19   -6.833292E-21   -2.041636E-22
        -5.396753E-24
  21    -2.299157E-25   -9.732107E-24   -3.690722E-22   -1.201905E-20   -3.119354E-19   -1.853865E-18    8.001374E-16    1.078623E-13    9.622175E-12    6.361641E-10
         3.106423E-08    1.089291E-06    2.657176E-05    4.352374E-04    4.441064E-03    2.082563E-02    4.441064E-03    4.352374E-04    2.657176E-05    1.089291E-06
         3.106423E-08    6.361641E-10    9.622176E-12    1.078621E-13    8.000847E-16   -1.859717E-18   -3.122970E-19   -1.203506E-20   -3.696307E-22   -9.748377E-24
        -2.303362E-25
  22    -7.077143E-27   -3.401706E-25   -1.478414E-23   -5.580566E-22   -1.783224E-20   -4.313710E-19    7.836321E-19    1.374738E-15    1.529587E-13    1.152431E-11
         6.361641E-10    2.555119E-08    7.254239E-07    1.392275E-05    1.645102E-04    8.765611E-04    1.645102E-04    1.392275E-05    7.254239E-07    2.555119E-08
         6.361641E-10    1.152431E-11    1.529585E-13    1.374637E-15    7.702756E-19   -4.322804E-19   -1.787483E-20   -5.595925E-22   -1.482944E-23   -3.413112E-25
        -7.102972E-27
  23    -1.588136E-28   -8.788867E-27   -4.430221E-25   -1.951699E-23   -7.340258E-22   -2.290460E-20   -5.141924E-19    3.336117E-18    1.637751E-15    1.529587E-13
         9.622174E-12    4.347497E-10    1.391594E-08    3.010331E-07    3.968459E-06    2.330879E-05    3.968459E-06    3.010331E-07    1.391594E-08    4.347496E-10
         9.622176E-12    1.529585E-13    1.637619E-15    3.315724E-18   -5.157796E-19   -2.298534E-20   -7.370968E-22   -1.961011E-23   -4.453766E-25   -8.840348E-27
        -1.598336E-28
  24    -2.602721E-30   -1.684919E-28   -9.992762E-27   -5.200598E-25   -2.311982E-23   -8.586483E-22   -2.585991E-20   -5.431107E-19    3.336956E-18    1.374746E-15
         1.078623E-13    5.535857E-12    1.967237E-10    4.682799E-09    6.726559E-08    4.269461E-07    6.726559E-08    4.682799E-09    1.967237E-10    5.535857E-12
         1.078621E-13    1.374637E-15    3.315724E-18   -5.450649E-19   -2.597206E-20   -8.632832E-22   -2.326766E-23   -5.238778E-25   -1.007571E-26   -1.700606E-28
        -2.629727E-30
  25    -3.079073E-32   -2.383594E-30   -1.697718E-28   -1.062008E-26   -5.657715E-25   -2.504426E-23   -9.035127E-22   -2.585615E-20   -5.140722E-19    7.852956E-19
         8.001447E-16    5.247880E-14    2.113472E-12    5.500592E-11    8.494917E-10    5.750392E-09    8.494917E-10    5.500592E-11    2.113471E-12    5.247864E-14
         8.000847E-16    7.702756E-19   -5.157796E-19   -2.597206E-20   -9.089210E-22   -2.523147E-23   -5.708332E-25   -1.073136E-26   -1.718332E-28   -2.416900E-30
        -3.128241E-32
  26    -2.546281E-34   -2.441830E-32   -2.158604E-30   -1.666898E-28   -1.085354E-26   -5.805595E-25   -2.503913E-23   -8.583641E-22   -2.289626E-20   -4.312316E-19
        -1.852694E-18    3.039864E-16    1.676028E-14    4.979574E-13    8.320103E-12    5.975916E-11    8.320103E-12    4.979570E-13    1.676017E-14    3.039628E-16
        -1.859717E-18   -4.322804E-19   -2.298534E-20   -8.632832E-22   -2.523147E-23   -5.861940E-25   -1.098247E-26   -1.690774E-28   -2.195647E-30   -2.491850E-32
        -2.608271E-34
  27    -1.368723E-36   -1.738715E-34   -2.022137E-32   -2.013039E-30   -1.648767E-28   -1.085061E-26   -5.655161E-25   -2.310734E-23   -7.336401E-22   -1.782481E-20
        -3.118541E-19   -2.609728E-18    6.198543E-17    3.169789E-15    6.262970E-14    4.879482E-13    6.262964E-14    3.169762E-15    6.197813E-17   -2.611912E-18
        -3.122970E-19   -1.787483E-20   -7.370968E-22   -2.326766E-23   -5.708332E-25   -1.098247E-26   -1.674062E-28   -2.051721E-30   -2.070921E-32   -1.791807E-34
        -1.422140E-36
  28    -3.925965E-39   -7.861560E-37   -1.355873E-34   -1.873390E-32   -2.012298E-30   -1.665891E-28   -1.061229E-26   -5.196641E-25   -1.950357E-23   -5.577632E-22
        -1.201520E-20   -1.886175E-19   -1.870099E-18   -1.813825E-18    2.657865E-16    2.743993E-15    2.657838E-16   -1.815282E-18   -1.870580E-18   -1.887433E-19
        -1.203506E-20   -5.595925E-22   -1.961011E-23   -5.238778E-25   -1.073136E-26   -1.690774E-28   -2.051721E-30   -1.921782E-32   -1.403269E-34   -8.252811E-37
        -4.227943E-39
  29    -9.286457E-43   -1.712615E-39   -6.182180E-37   -1.355090E-34   -2.020388E-32   -2.156420E-30   -1.695931E-28   -9.982808E-27   -4.426465E-25   -1.477486E-23
        -3.689313E-22   -6.827934E-21   -9.265528E-20   -8.837726E-19   -4.595743E-18   -7.824484E-18   -4.595875E-18   -8.838491E-19   -9.267967E-20   -6.833292E-21
        -3.696307E-22   -1.482944E-23   -4.453766E-25   -1.007571E-26   -1.718332E-28   -2.195647E-30   -2.070921E-32   -1.403269E-34   -6.525874E-37   -1.905927E-39
        -1.952815E-42
  30     2.225772E-44    1.459246E-42   -1.709686E-39   -7.849224E-37   -1.736020E-34   -2.438142E-32   -2.380222E-30   -1.682815E-28   -8.779971E-27   -3.399232E-25
        -9.727842E-24   -2.039801E-22   -3.120986E-21   -3.476602E-20   -2.514426E-19   -1.076589E-18   -2.514483E-19   -3.476932E-20   -3.121955E-21   -2.041636E-22
        -9.748377E-24   -3.413112E-25   -8.840348E-27   -1.700606E-28   -2.416900E-30   -2.491850E-32   -1.791807E-34   -8.252811E-37   -1.905927E-39    8.351954E-43
         2.056781E-44
  31      0.00000        2.228794E-44   -8.969343E-43   -3.912022E-39   -1.365265E-36   -2.540870E-34   -3.073449E-32   -2.598760E-30   -1.586253E-28   -7.071269E-27
        -2.298017E-25   -5.391297E-24   -9.073983E-23   -1.102103E-21   -9.027546E-21   -4.702758E-20   -9.027765E-21   -1.102223E-21   -9.077241E-23   -5.396753E-24
        -2.303362E-25   -7.102972E-27   -1.598336E-28   -2.629727E-30   -3.128241E-32   -2.608271E-34   -1.422140E-36   -4.227943E-39   -1.952815E-42    2.056781E-44
          0.00000    

 CONCENTRATION WILL BE SAVED ON UNIT 1030 AT END OF TIME STEP   65, STRESS PERIOD    2


  MASS BUDGET FOR ENTIRE MODEL AT END OF TIME STEP   65, STRESS PERIOD   2
  ---------------------------------------------------------------------------------------------------

     CUMULATIVE MASS      M       RATES FOR THIS TIME STEP      M/T          PACKAGE NAME    
     ------------------                 ------------------------                     ----------------

           IN:                                      IN:
           ---                                      ---
     STORAGE-AQUEOUS =  7064281392.4062       STORAGE-AQUEOUS =     1142045.2241     MST                              
                 WEL =  7884000000.0000                   WEL =           0.0000     SSM_WEL-1                        
                 CHD =           0.0000                   CHD =           0.0000     SSM_CHD-1                        

            TOTAL IN = 14948281392.4062              TOTAL IN =     1142045.2241

          OUT:                                     OUT:
          ----                                     ----
     STORAGE-AQUEOUS =  7888712035.2485       STORAGE-AQUEOUS =          23.5342     MST                              
                 WEL =  7059569357.1578                   WEL =     1142021.6898     SSM_WEL-1                        
                 CHD =       7.5562E-18                   CHD =           0.0000     SSM_CHD-1                        

           TOTAL OUT = 14948281392.4063             TOTAL OUT =     1142045.2241

            IN - OUT =      -1.0300E-04              IN - OUT =      -3.1665E-08

 PERCENT DISCREPANCY =          -0.00     PERCENT DISCREPANCY =          -0.00




         TIME SUMMARY AT END OF TIME STEP   65 IN STRESS PERIOD    2
                    SECONDS     MINUTES      HOURS       DAYS        YEARS
                    -----------------------------------------------------------
   TIME STEP LENGTH 2.16991E+06  36165.      602.75      25.115     6.87602E-02
 STRESS PERIOD TIME 1.41044E+08 2.35073E+06  39179.      1632.5      4.4694    
         TOTAL TIME 2.19884E+08 3.66473E+06  61079.      2545.0      6.9677    


end timestep


start timestep kper="2" kstp="66" mode="normal"

 UBDSV1 SAVING  STORAGE-AQUEOUS ON UNIT   1029 AT TIME STEP     66, STRESS PERIOD      2
 UBDSV1 SAVING     FLOW-JA-FACE ON UNIT   1029 AT TIME STEP     66, STRESS PERIOD      2
 UBDSV06 SAVING  SOURCE-SINK MIX IN MODEL GWT_P06-MF6      PACKAGE GWT_P06-MF6     CONNECTED TO MODEL GWT_P06-MF6      PACKAGE SSM              ON UNIT   1029 AT TIME STEP     66, STRESS PERIOD      2
1
  CONCENTRATION IN LAYER   1 AT END OF TIME STEP  66 IN STRESS PERIOD    2
  ---------------------------------------------------------------------------

                1               2               3               4               5               6               7               8               9              10
               11              12              13              14              15              16              17              18              19              20
               21              22              23              24              25              26              27              28              29              30
               31
 ................................................................................................................................................................................................................................................................................................................................................................................................................................................................................................................
   1      0.00000        2.039417E-44   -2.751940E-42   -4.628397E-39   -1.521151E-36   -2.759651E-34   -3.284810E-32   -2.744083E-30   -1.658492E-28   -7.332148E-27
        -2.366402E-25   -5.521515E-24   -9.255500E-23   -1.120178E-21   -9.141283E-21   -4.734023E-20   -9.141086E-21   -1.120078E-21   -9.252928E-23   -5.517259E-24
        -2.362119E-25   -7.305736E-27   -1.648017E-28   -2.716221E-30   -3.233846E-32   -2.695087E-34   -1.465240E-36   -4.310638E-39   -1.667680E-42    2.219740E-44
          0.00000    
   2     2.039417E-44    4.574167E-43   -2.111473E-39   -8.838298E-37   -1.895319E-34   -2.615587E-32   -2.521602E-30   -1.764839E-28   -9.128980E-27   -3.508168E-25
        -9.976677E-24   -2.081419E-22   -3.171689E-21   -3.517157E-20   -2.528220E-19   -1.072374E-18   -2.528169E-19   -3.516879E-20   -3.170921E-21   -2.079983E-22
        -9.960160E-24   -3.496544E-25   -9.076302E-27   -1.748720E-28   -2.487233E-30   -2.563752E-32   -1.840066E-34   -8.429306E-37   -1.908388E-39    1.117220E-42
         2.222992E-44
   3    -2.751940E-42   -2.111473E-39   -6.994192E-37   -1.484064E-34   -2.172811E-32   -2.289936E-30   -1.782943E-28   -1.040531E-26   -4.578957E-25   -1.518174E-23
        -3.768911E-22   -6.938647E-21   -9.353356E-20   -8.793603E-19   -4.376196E-18   -5.890777E-18   -4.376078E-18   -8.792957E-19   -9.351413E-20   -6.934441E-21
        -3.763259E-22   -1.513574E-23   -4.554949E-25   -1.032039E-26   -1.761755E-28   -2.251713E-30   -2.122276E-32   -1.434769E-34   -6.635115E-37   -1.905289E-39
        -1.633847E-42
   4    -4.628397E-39   -8.838298E-37   -1.484064E-34   -2.015932E-32   -2.139194E-30   -1.753906E-28   -1.108103E-26   -5.386229E-25   -2.007959E-23   -5.706785E-22
        -1.221385E-20   -1.896471E-19   -1.810270E-18    5.836905E-19    3.073743E-16    3.043691E-15    3.073766E-16    5.849311E-19   -1.809881E-18   -1.895478E-19
        -1.219771E-20   -5.691242E-22   -1.998497E-23   -5.347282E-25   -1.096707E-26   -1.729363E-28   -2.099283E-30   -1.965810E-32   -1.433951E-34   -8.416341E-37
        -4.295874E-39
   5    -1.521151E-36   -1.895319E-34   -2.172811E-32   -2.139194E-30   -1.736370E-28   -1.133892E-26   -5.868675E-25   -2.382582E-23   -7.517332E-22   -1.812625E-20
        -3.117218E-19   -2.334815E-18    7.491179E-17    3.521465E-15    6.807775E-14    5.242195E-13    6.807780E-14    3.521489E-15    7.491789E-17   -2.333065E-18
        -3.113588E-19   -1.808332E-20   -7.486243E-22   -2.367555E-23   -5.817027E-25   -1.120687E-26   -1.710368E-28   -2.098516E-30   -2.120458E-32   -1.837250E-34
        -1.461602E-36
   6    -2.759651E-34   -2.615587E-32   -2.289936E-30   -1.753906E-28   -1.133892E-26   -6.026396E-25   -2.583657E-23   -8.803931E-22   -2.328862E-20   -4.280475E-19
        -1.087912E-18    3.476984E-16    1.839656E-14    5.376715E-13    8.887932E-12    6.327955E-11    8.887932E-12    5.376718E-13    1.839666E-14    3.477183E-16
        -1.082065E-18   -4.271348E-19   -2.320721E-20   -8.757000E-22   -2.564624E-23   -5.968898E-25   -1.120386E-26   -1.728326E-28   -2.249453E-30   -2.559918E-32
        -2.689431E-34
   7    -3.284810E-32   -2.521602E-30   -1.782943E-28   -1.108103E-26   -5.868675E-25   -2.583657E-23   -9.269110E-22   -2.629971E-20   -5.071983E-19    2.220972E-18
         8.999324E-16    5.727061E-14    2.272850E-12    5.852145E-11    8.955230E-10    6.011395E-09    8.955230E-10    5.852145E-11    2.272851E-12    5.727077E-14
         8.999846E-16    2.234216E-18   -5.056057E-19   -2.618662E-20   -9.214342E-22   -2.564103E-23   -5.814418E-25   -1.095908E-26   -1.759914E-28   -2.483745E-30
        -3.228000E-32
   8    -2.744083E-30   -1.764839E-28   -1.040531E-26   -5.386229E-25   -2.382582E-23   -8.803931E-22   -2.629971E-20   -5.344989E-19    5.281293E-18    1.535787E-15
         1.173464E-13    5.937229E-12    2.086263E-10    4.916801E-09    6.999146E-08    4.405704E-07    6.999146E-08    4.916801E-09    2.086263E-10    5.937229E-12
         1.173466E-13    1.535887E-15    5.301507E-18   -5.325383E-19   -2.618283E-20   -8.754120E-22   -2.366286E-23   -5.343241E-25   -1.031018E-26   -1.746555E-28
        -2.712127E-30
   9    -1.658492E-28   -9.128980E-27   -4.578957E-25   -2.007959E-23   -7.517332E-22   -2.328862E-20   -5.071983E-19    5.281293E-18    1.826150E-15    1.661744E-13
         1.030308E-11    4.599920E-10    1.456360E-08    3.118893E-07    4.074566E-06    2.373619E-05    4.074566E-06    3.118893E-07    1.456360E-08    4.599920E-10
         1.030308E-11    1.661747E-13    1.826280E-15    5.302338E-18   -5.054851E-19   -2.319880E-20   -7.482336E-22   -1.997133E-23   -4.551116E-25   -9.067190E-27
        -1.646081E-28
  10    -7.332148E-27   -3.508168E-25   -1.518174E-23   -5.706785E-22   -1.812625E-20   -4.280475E-19    2.220972E-18    1.535787E-15    1.661744E-13    1.233313E-11
         6.722826E-10    2.668201E-08    7.490421E-07    1.422931E-05    1.666266E-04    8.807636E-04    1.666266E-04    1.422931E-05    7.490421E-07    2.668201E-08
         6.722826E-10    1.233313E-11    1.661747E-13    1.535895E-15    2.235863E-18   -4.269950E-19   -1.807583E-20   -5.688272E-22   -1.512631E-23   -3.494022E-25
        -7.299727E-27
  11    -2.366402E-25   -9.976677E-24   -3.768911E-22   -1.221385E-20   -3.117218E-19   -1.087912E-18    8.999324E-16    1.173464E-13    1.030308E-11    6.722826E-10
         3.241414E-08    1.122615E-06    2.706546E-05    4.387111E-04    4.437187E-03    2.065069E-02    4.437187E-03    4.387111E-04    2.706546E-05    1.122615E-06
         3.241414E-08    6.722826E-10    1.030308E-11    1.173466E-13    8.999917E-16   -1.080898E-18   -3.112772E-19   -1.219384E-20   -3.761835E-22   -9.955831E-24
        -2.360958E-25
  12    -5.521515E-24   -2.081419E-22   -6.938647E-21   -1.896471E-19   -2.334815E-18    3.476984E-16    5.727061E-14    5.937229E-12    4.599920E-10    2.668201E-08
         1.122615E-06    3.295871E-05    6.519611E-04    8.498098E-03    6.998556E-02    0.273382        6.998556E-02    8.498098E-03    6.519611E-04    3.295871E-05
         1.122615E-06    2.668201E-08    4.599920E-10    5.937229E-12    5.727077E-14    3.477219E-16   -2.332630E-18   -1.895208E-19   -6.933245E-21   -2.079562E-22
        -5.515979E-24
  13    -9.255500E-23   -3.171689E-21   -9.353356E-20   -1.810270E-18    7.491179E-17    1.839656E-14    2.272850E-12    2.086263E-10    1.456360E-08    7.490421E-07
         2.706546E-05    6.519611E-04    1.001026E-02    9.644985E-02    0.591321         1.80396        0.591321        9.644985E-02    1.001026E-02    6.519611E-04
         2.706546E-05    7.490421E-07    1.456360E-08    2.086263E-10    2.272851E-12    1.839667E-14    7.491907E-17   -1.809787E-18   -9.350903E-20   -3.170711E-21
        -9.252203E-23
  14    -1.120178E-21   -3.517157E-20   -8.793603E-19    5.836905E-19    3.521465E-15    5.376715E-13    5.852145E-11    4.916801E-09    3.118893E-07    1.422931E-05
         4.387111E-04    8.498098E-03    9.644985E-02    0.629294         2.57268         5.65826         2.57268        0.629294        9.644985E-02    8.498098E-03
         4.387111E-04    1.422931E-05    3.118893E-07    4.916801E-09    5.852145E-11    5.376719E-13    3.521492E-15    5.851473E-19   -8.792834E-19   -3.516824E-20
        -1.120057E-21
  15    -9.141283E-21   -2.528220E-19   -4.376196E-18    3.073743E-16    6.807775E-14    8.887932E-12    8.955230E-10    6.999146E-08    4.074566E-06    1.666266E-04
         4.437187E-03    6.998556E-02    0.591321         2.57268         7.08476         9.77527         7.08476         2.57268        0.591321        6.998556E-02
         4.437187E-03    1.666266E-04    4.074566E-06    6.999146E-08    8.955230E-10    8.887933E-12    6.807781E-14    3.073770E-16   -4.376063E-18   -2.528163E-19
        -9.141063E-21
  16    -4.734023E-20   -1.072374E-18   -5.890777E-18    3.043691E-15    5.242195E-13    6.327955E-11    6.011395E-09    4.405704E-07    2.373619E-05    8.807636E-04
         2.065069E-02    0.273382         1.80396         5.65826         9.77527         12.7423         9.77527         5.65826         1.80396        0.273382    
         2.065069E-02    8.807636E-04    2.373619E-05    4.405704E-07    6.011395E-09    6.327955E-11    5.242195E-13    3.043691E-15   -5.890778E-18   -1.072374E-18
        -4.734024E-20
  17    -9.141086E-21   -2.528169E-19   -4.376078E-18    3.073766E-16    6.807780E-14    8.887932E-12    8.955230E-10    6.999146E-08    4.074566E-06    1.666266E-04
         4.437187E-03    6.998556E-02    0.591321         2.57268         7.08476         9.77527         7.08476         2.57268        0.591321        6.998556E-02
         4.437187E-03    1.666266E-04    4.074566E-06    6.999146E-08    8.955230E-10    8.887932E-12    6.807775E-14    3.073743E-16   -4.376196E-18   -2.528220E-19
        -9.141283E-21
  18    -1.120078E-21   -3.516879E-20   -8.792957E-19    5.849311E-19    3.521489E-15    5.376718E-13    5.852145E-11    4.916801E-09    3.118893E-07    1.422931E-05
         4.387111E-04    8.498098E-03    9.644985E-02    0.629294         2.57268         5.65826         2.57268        0.629294        9.644985E-02    8.498098E-03
         4.387111E-04    1.422931E-05    3.118893E-07    4.916801E-09    5.852145E-11    5.376715E-13    3.521465E-15    5.836910E-19   -8.793603E-19   -3.517157E-20
        -1.120178E-21
  19    -9.252928E-23   -3.170921E-21   -9.351413E-20   -1.809881E-18    7.491789E-17    1.839666E-14    2.272851E-12    2.086263E-10    1.456360E-08    7.490421E-07
         2.706546E-05    6.519611E-04    1.001026E-02    9.644985E-02    0.591321         1.80396        0.591321        9.644985E-02    1.001026E-02    6.519611E-04
         2.706546E-05    7.490421E-07    1.456360E-08    2.086263E-10    2.272850E-12    1.839656E-14    7.491179E-17   -1.810270E-18   -9.353356E-20   -3.171689E-21
        -9.255500E-23
  20    -5.517259E-24   -2.079983E-22   -6.934441E-21   -1.895478E-19   -2.333065E-18    3.477183E-16    5.727077E-14    5.937229E-12    4.599920E-10    2.668201E-08
         1.122615E-06    3.295871E-05    6.519611E-04    8.498098E-03    6.998556E-02    0.273382        6.998556E-02    8.498098E-03    6.519611E-04    3.295871E-05
         1.122615E-06    2.668201E-08    4.599920E-10    5.937229E-12    5.727061E-14    3.476984E-16   -2.334815E-18   -1.896471E-19   -6.938647E-21   -2.081419E-22
        -5.521515E-24
  21    -2.362119E-25   -9.960160E-24   -3.763259E-22   -1.219771E-20   -3.113588E-19   -1.082065E-18    8.999846E-16    1.173466E-13    1.030308E-11    6.722826E-10
         3.241414E-08    1.122615E-06    2.706546E-05    4.387111E-04    4.437187E-03    2.065069E-02    4.437187E-03    4.387111E-04    2.706546E-05    1.122615E-06
         3.241414E-08    6.722826E-10    1.030308E-11    1.173464E-13    8.999324E-16   -1.087912E-18   -3.117218E-19   -1.221385E-20   -3.768911E-22   -9.976677E-24
        -2.366402E-25
  22    -7.305736E-27   -3.496544E-25   -1.513574E-23   -5.691242E-22   -1.808332E-20   -4.271348E-19    2.234216E-18    1.535887E-15    1.661747E-13    1.233313E-11
         6.722826E-10    2.668201E-08    7.490421E-07    1.422931E-05    1.666266E-04    8.807636E-04    1.666266E-04    1.422931E-05    7.490421E-07    2.668201E-08
         6.722826E-10    1.233313E-11    1.661744E-13    1.535787E-15    2.220972E-18   -4.280475E-19   -1.812625E-20   -5.706785E-22   -1.518174E-23   -3.508168E-25
        -7.332148E-27
  23    -1.648017E-28   -9.076302E-27   -4.554949E-25   -1.998497E-23   -7.486243E-22   -2.320721E-20   -5.056057E-19    5.301507E-18    1.826280E-15    1.661747E-13
         1.030308E-11    4.599920E-10    1.456360E-08    3.118893E-07    4.074566E-06    2.373619E-05    4.074566E-06    3.118893E-07    1.456360E-08    4.599920E-10
         1.030308E-11    1.661744E-13    1.826150E-15    5.281293E-18   -5.071983E-19   -2.328862E-20   -7.517332E-22   -2.007959E-23   -4.578957E-25   -9.128980E-27
        -1.658492E-28
  24    -2.716221E-30   -1.748720E-28   -1.032039E-26   -5.347282E-25   -2.367555E-23   -8.757000E-22   -2.618662E-20   -5.325383E-19    5.302338E-18    1.535895E-15
         1.173466E-13    5.937229E-12    2.086263E-10    4.916801E-09    6.999146E-08    4.405704E-07    6.999146E-08    4.916801E-09    2.086263E-10    5.937229E-12
         1.173464E-13    1.535787E-15    5.281293E-18   -5.344989E-19   -2.629971E-20   -8.803930E-22   -2.382582E-23   -5.386229E-25   -1.040531E-26   -1.764839E-28
        -2.744083E-30
  25    -3.233846E-32   -2.487233E-30   -1.761755E-28   -1.096707E-26   -5.817027E-25   -2.564624E-23   -9.214342E-22   -2.618283E-20   -5.054851E-19    2.235863E-18
         8.999917E-16    5.727077E-14    2.272851E-12    5.852145E-11    8.955230E-10    6.011395E-09    8.955230E-10    5.852145E-11    2.272850E-12    5.727061E-14
         8.999324E-16    2.220972E-18   -5.071983E-19   -2.629971E-20   -9.269110E-22   -2.583657E-23   -5.868675E-25   -1.108103E-26   -1.782943E-28   -2.521602E-30
        -3.284810E-32
  26    -2.695087E-34   -2.563752E-32   -2.251713E-30   -1.729363E-28   -1.120687E-26   -5.968898E-25   -2.564103E-23   -8.754120E-22   -2.319880E-20   -4.269950E-19
        -1.080898E-18    3.477219E-16    1.839667E-14    5.376719E-13    8.887933E-12    6.327955E-11    8.887932E-12    5.376715E-13    1.839656E-14    3.476984E-16
        -1.087912E-18   -4.280475E-19   -2.328862E-20   -8.803930E-22   -2.583657E-23   -6.026396E-25   -1.133892E-26   -1.753906E-28   -2.289936E-30   -2.615587E-32
        -2.759651E-34
  27    -1.465240E-36   -1.840066E-34   -2.122276E-32   -2.099283E-30   -1.710368E-28   -1.120386E-26   -5.814418E-25   -2.366286E-23   -7.482336E-22   -1.807583E-20
        -3.112772E-19   -2.332630E-18    7.491907E-17    3.521492E-15    6.807781E-14    5.242195E-13    6.807775E-14    3.521465E-15    7.491179E-17   -2.334815E-18
        -3.117218E-19   -1.812625E-20   -7.517332E-22   -2.382582E-23   -5.868675E-25   -1.133892E-26   -1.736370E-28   -2.139194E-30   -2.172811E-32   -1.895319E-34
        -1.521151E-36
  28    -4.310638E-39   -8.429306E-37   -1.434769E-34   -1.965810E-32   -2.098516E-30   -1.728326E-28   -1.095908E-26   -5.343241E-25   -1.997133E-23   -5.688272E-22
        -1.219384E-20   -1.895208E-19   -1.809787E-18    5.851473E-19    3.073770E-16    3.043691E-15    3.073743E-16    5.836910E-19   -1.810270E-18   -1.896471E-19
        -1.221385E-20   -5.706785E-22   -2.007959E-23   -5.386229E-25   -1.108103E-26   -1.753906E-28   -2.139194E-30   -2.015932E-32   -1.484064E-34   -8.838298E-37
        -4.628397E-39
  29    -1.667680E-42   -1.908388E-39   -6.635115E-37   -1.433951E-34   -2.120458E-32   -2.249453E-30   -1.759914E-28   -1.031018E-26   -4.551116E-25   -1.512631E-23
        -3.761835E-22   -6.933245E-21   -9.350903E-20   -8.792834E-19   -4.376063E-18   -5.890778E-18   -4.376196E-18   -8.793603E-19   -9.353356E-20   -6.938647E-21
        -3.768911E-22   -1.518174E-23   -4.578957E-25   -1.040531E-26   -1.782943E-28   -2.289936E-30   -2.172811E-32   -1.484064E-34   -6.994192E-37   -2.111473E-39
        -2.751940E-42
  30     2.219740E-44    1.117220E-42   -1.905289E-39   -8.416341E-37   -1.837250E-34   -2.559918E-32   -2.483745E-30   -1.746555E-28   -9.067190E-27   -3.494022E-25
        -9.955831E-24   -2.079562E-22   -3.170711E-21   -3.516824E-20   -2.528163E-19   -1.072374E-18   -2.528220E-19   -3.517157E-20   -3.171689E-21   -2.081419E-22
        -9.976677E-24   -3.508168E-25   -9.128980E-27   -1.764839E-28   -2.521602E-30   -2.615587E-32   -1.895319E-34   -8.838298E-37   -2.111473E-39    4.574169E-43
         2.039417E-44
  31      0.00000        2.222992E-44   -1.633847E-42   -4.295874E-39   -1.461602E-36   -2.689431E-34   -3.228000E-32   -2.712127E-30   -1.646081E-28   -7.299727E-27
        -2.360958E-25   -5.515979E-24   -9.252203E-23   -1.120057E-21   -9.141063E-21   -4.734024E-20   -9.141283E-21   -1.120178E-21   -9.255500E-23   -5.521515E-24
        -2.366402E-25   -7.332148E-27   -1.658492E-28   -2.744083E-30   -3.284810E-32   -2.759651E-34   -1.521151E-36   -4.628397E-39   -2.751940E-42    2.039417E-44
          0.00000    

 CONCENTRATION WILL BE SAVED ON UNIT 1030 AT END OF TIME STEP   66, STRESS PERIOD    2


  MASS BUDGET FOR ENTIRE MODEL AT END OF TIME STEP   66, STRESS PERIOD   2
  ---------------------------------------------------------------------------------------------------

     CUMULATIVE MASS      M       RATES FOR THIS TIME STEP      M/T          PACKAGE NAME    
     ------------------                 ------------------------                     ----------------

           IN:                                      IN:
           ---                                      ---
     STORAGE-AQUEOUS =  7091931516.5784       STORAGE-AQUEOUS =     1100954.7159     MST                              
                 WEL =  7884000000.0000                   WEL =           0.0000     SSM_WEL-1                        
                 CHD =           0.0000                   CHD =           0.0000     SSM_CHD-1                        

            TOTAL IN = 14975931516.5784              TOTAL IN =     1100954.7159

          OUT:                                     OUT:
          ----                                     ----
     STORAGE-AQUEOUS =  7888712596.7957       STORAGE-AQUEOUS =          22.3593     MST                              
                 WEL =  7087218919.7827                   WEL =     1100932.3566     SSM_WEL-1                        
                 CHD =       7.5562E-18                   CHD =           0.0000     SSM_CHD-1                        

           TOTAL OUT = 14975931516.5785             TOTAL OUT =     1100954.7159

            IN - OUT =      -1.0490E-04              IN - OUT =      -2.7474E-08

 PERCENT DISCREPANCY =          -0.00     PERCENT DISCREPANCY =          -0.00




         TIME SUMMARY AT END OF TIME STEP   66 IN STRESS PERIOD    2
                    SECONDS     MINUTES      HOURS       DAYS        YEARS
                    -----------------------------------------------------------
   TIME STEP LENGTH 2.16991E+06  36165.      602.75      25.115     6.87602E-02
 STRESS PERIOD TIME 1.43214E+08 2.38690E+06  39782.      1657.6      4.5382    
         TOTAL TIME 2.22054E+08 3.70090E+06  61682.      2570.1      7.0365    


end timestep


start timestep kper="2" kstp="67" mode="normal"

 UBDSV1 SAVING  STORAGE-AQUEOUS ON UNIT   1029 AT TIME STEP     67, STRESS PERIOD      2
 UBDSV1 SAVING     FLOW-JA-FACE ON UNIT   1029 AT TIME STEP     67, STRESS PERIOD      2
 UBDSV06 SAVING  SOURCE-SINK MIX IN MODEL GWT_P06-MF6      PACKAGE GWT_P06-MF6     CONNECTED TO MODEL GWT_P06-MF6      PACKAGE SSM              ON UNIT   1029 AT TIME STEP     67, STRESS PERIOD      2
1
  CONCENTRATION IN LAYER   1 AT END OF TIME STEP  67 IN STRESS PERIOD    2
  ---------------------------------------------------------------------------

                1               2               3               4               5               6               7               8               9              10
               11              12              13              14              15              16              17              18              19              20
               21              22              23              24              25              26              27              28              29              30
               31
 ................................................................................................................................................................................................................................................................................................................................................................................................................................................................................................................
   1      0.00000        2.013537E-44   -3.626876E-42   -5.056369E-39   -1.625807E-36   -2.918461E-34   -3.448054E-32   -2.862658E-30   -1.720550E-28   -7.567449E-27
        -2.430848E-25   -5.648579E-24   -9.436369E-23   -1.138304E-21   -9.254908E-21   -4.764759E-20   -9.254709E-21   -1.138202E-21   -9.433766E-23   -5.644259E-24
        -2.426486E-25   -7.540445E-27   -1.709794E-28   -2.833918E-30   -3.395238E-32   -2.851232E-34   -1.567300E-36   -4.722107E-39   -2.479450E-42    2.205846E-44
          0.00000    
   2     2.013537E-44    4.086714E-44   -2.331342E-39   -9.456986E-37   -2.003868E-34   -2.744568E-32   -2.630165E-30   -1.831117E-28   -9.425419E-27   -3.605369E-25
        -1.020917E-23   -2.121756E-22   -3.221741E-21   -3.556800E-20   -2.540358E-19   -1.066925E-18   -2.540306E-19   -3.556520E-20   -3.220966E-21   -2.120303E-22
        -1.019241E-23   -3.593525E-25   -9.371521E-27   -1.814555E-28   -2.594705E-30   -2.690861E-32   -1.946375E-34   -9.029544E-37   -2.118046E-39    7.382170E-43
         2.209344E-44
   3    -3.626876E-42   -2.331342E-39   -7.489006E-37   -1.568762E-34   -2.278985E-32   -2.387687E-30   -1.849609E-28   -1.074388E-26   -4.707004E-25   -1.554056E-23
        -3.842462E-22   -7.044054E-21   -9.433730E-20   -8.731869E-19   -4.129416E-18   -3.773923E-18   -4.129297E-18   -8.731220E-19   -9.431775E-20   -7.039812E-21
        -3.836745E-22   -1.549384E-23   -4.682526E-25   -1.065694E-26   -1.827834E-28   -2.348251E-30   -2.226645E-32   -1.517500E-34   -7.113935E-37   -2.114769E-39
        -2.443370E-42
   4    -5.056369E-39   -9.456986E-37   -1.568762E-34   -2.114028E-32   -2.229863E-30   -1.819040E-28   -1.144021E-26   -5.537062E-25   -2.055776E-23   -5.818964E-22
        -1.239103E-20   -1.903261E-19   -1.740389E-18    3.211921E-18    3.522881E-16    3.363939E-15    3.522904E-16    3.213161E-18   -1.739999E-18   -1.902264E-19
        -1.237476E-20   -5.803235E-22   -2.046163E-23   -5.497336E-25   -1.132352E-26   -1.793815E-28   -2.188689E-30   -2.062122E-32   -1.516646E-34   -9.015922E-37
        -4.706480E-39
   5    -1.625807E-36   -2.003868E-34   -2.278985E-32   -2.229863E-30   -1.800651E-28   -1.170506E-26   -6.032699E-25   -2.439429E-23   -7.665241E-22   -1.837220E-20
        -3.104893E-19   -2.022885E-18    8.900093E-17    3.899494E-15    7.387540E-14    5.624785E-13    7.387544E-14    3.899518E-15    8.900702E-17   -2.021133E-18
        -3.101248E-19   -1.832892E-20   -7.633771E-22   -2.424156E-23   -5.980005E-25   -1.156983E-26   -1.773925E-28   -2.187896E-30   -2.224755E-32   -1.943434E-34
        -1.563475E-36
   6    -2.918461E-34   -2.744568E-32   -2.387687E-30   -1.819040E-28   -1.170506E-26   -6.194627E-25   -2.645280E-23   -8.976648E-22   -2.358120E-20   -4.224721E-19
        -2.293116E-19    3.951505E-16    2.014937E-14    5.797718E-13    9.484243E-12    6.694385E-11    9.484243E-12    5.797721E-13    2.014947E-14    3.951703E-16
        -2.235076E-19   -4.215562E-19   -2.349912E-20   -8.929132E-22   -2.625933E-23   -6.135958E-25   -1.156674E-26   -1.792747E-28   -2.345914E-30   -2.686876E-32
        -2.845320E-34
   7    -3.448054E-32   -2.630165E-30   -1.849609E-28   -1.144021E-26   -6.032699E-25   -2.645280E-23   -9.450634E-22   -2.661278E-20   -4.965938E-19    3.818083E-18
         1.007988E-15    6.239006E-14    2.441247E-12    6.219779E-11    9.431954E-10    6.279217E-09    9.431954E-10    6.219779E-11    2.441248E-12    6.239023E-14
         1.008039E-15    3.831215E-18   -4.949961E-19   -2.649875E-20   -9.395178E-22   -2.625402E-23   -5.977339E-25   -1.131533E-26   -1.825939E-28   -2.591098E-30
        -3.389163E-32
   8    -2.862658E-30   -1.831117E-28   -1.074388E-26   -5.537062E-25   -2.439429E-23   -8.976648E-22   -2.661278E-20   -5.216182E-19    7.441829E-18    1.709930E-15
         1.274604E-13    6.360203E-12    2.210276E-10    5.157969E-09    7.277206E-08    4.543292E-07    7.277206E-08    5.157969E-09    2.210276E-10    6.360204E-12
         1.274607E-13    1.710029E-15    7.461865E-18   -5.196514E-19   -2.649492E-20   -8.926215E-22   -2.422866E-23   -5.493210E-25   -1.064648E-26   -1.812327E-28
        -2.829687E-30
   9    -1.720550E-28   -9.425419E-27   -4.707004E-25   -2.055776E-23   -7.665241E-22   -2.358120E-20   -4.965938E-19    7.441829E-18    2.029781E-15    1.802547E-13
         1.101943E-11    4.862186E-10    1.522827E-08    3.228983E-07    4.180904E-06    2.415901E-05    4.180904E-06    3.228983E-07    1.522827E-08    4.862187E-10
         1.101943E-11    1.802550E-13    2.029910E-15    7.462687E-18   -4.948752E-19   -2.349065E-20   -7.629816E-22   -2.044777E-23   -4.678615E-25   -9.362189E-27
        -1.707804E-28
  10    -7.567449E-27   -3.605369E-25   -1.554056E-23   -5.818964E-22   -1.837220E-20   -4.224721E-19    3.818083E-18    1.709930E-15    1.802547E-13    1.318354E-11
         7.097523E-10    2.783911E-08    7.728702E-07    1.453400E-05    1.686906E-04    8.846666E-04    1.686906E-04    1.453400E-05    7.728702E-07    2.783911E-08
         7.097524E-10    1.318354E-11    1.802550E-13    1.710037E-15    3.832845E-18   -4.214159E-19   -1.832138E-20   -5.800229E-22   -1.548426E-23   -3.590954E-25
        -7.534297E-27
  11    -2.430848E-25   -1.020917E-23   -3.842462E-22   -1.239103E-20   -3.104893E-19   -2.293116E-19    1.007988E-15    1.274604E-13    1.101943E-11    7.097523E-10
         3.379392E-08    1.156130E-06    2.755242E-05    4.420180E-04    4.431918E-03    2.047304E-02    4.431918E-03    4.420180E-04    2.755242E-05    1.156130E-06
         3.379392E-08    7.097524E-10    1.101943E-11    1.274606E-13    1.008047E-15   -2.223510E-19   -3.100430E-19   -1.237085E-20   -3.835304E-22   -1.018801E-23
        -2.425304E-25
  12    -5.648579E-24   -2.121756E-22   -7.044054E-21   -1.903261E-19   -2.022885E-18    3.951505E-16    6.239006E-14    6.360203E-12    4.862186E-10    2.783911E-08
         1.156130E-06    3.350977E-05    6.549071E-04    8.447781E-03    6.900067E-02    0.267771        6.900067E-02    8.447781E-03    6.549071E-04    3.350977E-05
         1.156130E-06    2.783911E-08    4.862187E-10    6.360203E-12    6.239022E-14    3.951738E-16   -2.020699E-18   -1.901992E-19   -7.038607E-21   -2.119878E-22
        -5.642960E-24
  13    -9.436369E-23   -3.221741E-21   -9.433730E-20   -1.740389E-18    8.900093E-17    2.014937E-14    2.441247E-12    2.210276E-10    1.522827E-08    7.728702E-07
         2.755242E-05    6.549071E-04    9.931385E-03    9.471062E-02    0.576535         1.75042        0.576535        9.471062E-02    9.931385E-03    6.549071E-04
         2.755242E-05    7.728702E-07    1.522827E-08    2.210276E-10    2.441248E-12    2.014949E-14    8.900820E-17   -1.739904E-18   -9.431263E-20   -3.220754E-21
        -9.433032E-23
  14    -1.138304E-21   -3.556800E-20   -8.731869E-19    3.211921E-18    3.899494E-15    5.797718E-13    6.219779E-11    5.157969E-09    3.228983E-07    1.453400E-05
         4.420180E-04    8.447781E-03    9.471062E-02    0.612212         2.49028         5.46455         2.49028        0.612212        9.471062E-02    8.447781E-03
         4.420180E-04    1.453400E-05    3.228983E-07    5.157969E-09    6.219779E-11    5.797721E-13    3.899521E-15    3.213377E-18   -8.731096E-19   -3.556465E-20
        -1.138181E-21
  15    -9.254908E-21   -2.540358E-19   -4.129416E-18    3.522881E-16    7.387540E-14    9.484243E-12    9.431954E-10    7.277206E-08    4.180904E-06    1.686906E-04
         4.431918E-03    6.900067E-02    0.576535         2.49028         6.84015         9.42904         6.84015         2.49028        0.576535        6.900067E-02
         4.431918E-03    1.686906E-04    4.180904E-06    7.277206E-08    9.431954E-10    9.484243E-12    7.387545E-14    3.522908E-16   -4.129282E-18   -2.540300E-19
        -9.254686E-21
  16    -4.764759E-20   -1.066925E-18   -3.773923E-18    3.363939E-15    5.624785E-13    6.694385E-11    6.279217E-09    4.543292E-07    2.415901E-05    8.846666E-04
         2.047304E-02    0.267771         1.75042         5.46455         9.42904         12.2847         9.42904         5.46455         1.75042        0.267771    
         2.047304E-02    8.846666E-04    2.415901E-05    4.543292E-07    6.279217E-09    6.694385E-11    5.624785E-13    3.363939E-15   -3.773924E-18   -1.066925E-18
        -4.764759E-20
  17    -9.254709E-21   -2.540306E-19   -4.129297E-18    3.522904E-16    7.387544E-14    9.484243E-12    9.431954E-10    7.277206E-08    4.180904E-06    1.686906E-04
         4.431918E-03    6.900067E-02    0.576535         2.49028         6.84015         9.42904         6.84015         2.49028        0.576535        6.900067E-02
         4.431918E-03    1.686906E-04    4.180904E-06    7.277206E-08    9.431954E-10    9.484243E-12    7.387540E-14    3.522881E-16   -4.129416E-18   -2.540358E-19
        -9.254908E-21
  18    -1.138202E-21   -3.556520E-20   -8.731220E-19    3.213161E-18    3.899518E-15    5.797721E-13    6.219779E-11    5.157969E-09    3.228983E-07    1.453400E-05
         4.420180E-04    8.447781E-03    9.471062E-02    0.612212         2.49028         5.46455         2.49028        0.612212        9.471062E-02    8.447781E-03
         4.420180E-04    1.453400E-05    3.228983E-07    5.157969E-09    6.219779E-11    5.797718E-13    3.899494E-15    3.211922E-18   -8.731869E-19   -3.556800E-20
        -1.138304E-21
  19    -9.433766E-23   -3.220966E-21   -9.431775E-20   -1.739999E-18    8.900702E-17    2.014947E-14    2.441248E-12    2.210276E-10    1.522827E-08    7.728702E-07
         2.755242E-05    6.549071E-04    9.931385E-03    9.471062E-02    0.576535         1.75042        0.576535        9.471062E-02    9.931385E-03    6.549071E-04
         2.755242E-05    7.728702E-07    1.522827E-08    2.210276E-10    2.441247E-12    2.014937E-14    8.900093E-17   -1.740389E-18   -9.433730E-20   -3.221741E-21
        -9.436369E-23
  20    -5.644259E-24   -2.120303E-22   -7.039812E-21   -1.902264E-19   -2.021133E-18    3.951703E-16    6.239023E-14    6.360204E-12    4.862187E-10    2.783911E-08
         1.156130E-06    3.350977E-05    6.549071E-04    8.447781E-03    6.900067E-02    0.267771        6.900067E-02    8.447781E-03    6.549071E-04    3.350977E-05
         1.156130E-06    2.783911E-08    4.862186E-10    6.360203E-12    6.239006E-14    3.951505E-16   -2.022885E-18   -1.903261E-19   -7.044054E-21   -2.121756E-22
        -5.648578E-24
  21    -2.426486E-25   -1.019241E-23   -3.836745E-22   -1.237476E-20   -3.101248E-19   -2.235076E-19    1.008039E-15    1.274607E-13    1.101943E-11    7.097524E-10
         3.379392E-08    1.156130E-06    2.755242E-05    4.420180E-04    4.431918E-03    2.047304E-02    4.431918E-03    4.420180E-04    2.755242E-05    1.156130E-06
         3.379392E-08    7.097523E-10    1.101943E-11    1.274604E-13    1.007988E-15   -2.293116E-19   -3.104893E-19   -1.239103E-20   -3.842462E-22   -1.020917E-23
        -2.430848E-25
  22    -7.540445E-27   -3.593525E-25   -1.549384E-23   -5.803235E-22   -1.832892E-20   -4.215562E-19    3.831215E-18    1.710029E-15    1.802550E-13    1.318354E-11
         7.097524E-10    2.783911E-08    7.728702E-07    1.453400E-05    1.686906E-04    8.846666E-04    1.686906E-04    1.453400E-05    7.728702E-07    2.783911E-08
         7.097523E-10    1.318354E-11    1.802547E-13    1.709930E-15    3.818083E-18   -4.224721E-19   -1.837220E-20   -5.818964E-22   -1.554056E-23   -3.605369E-25
        -7.567449E-27
  23    -1.709794E-28   -9.371521E-27   -4.682526E-25   -2.046163E-23   -7.633771E-22   -2.349912E-20   -4.949961E-19    7.461865E-18    2.029910E-15    1.802550E-13
         1.101943E-11    4.862187E-10    1.522827E-08    3.228983E-07    4.180904E-06    2.415901E-05    4.180904E-06    3.228983E-07    1.522827E-08    4.862186E-10
         1.101943E-11    1.802547E-13    2.029781E-15    7.441829E-18   -4.965938E-19   -2.358120E-20   -7.665241E-22   -2.055776E-23   -4.707004E-25   -9.425419E-27
        -1.720550E-28
  24    -2.833918E-30   -1.814555E-28   -1.065694E-26   -5.497336E-25   -2.424156E-23   -8.929132E-22   -2.649875E-20   -5.196514E-19    7.462687E-18    1.710037E-15
         1.274606E-13    6.360203E-12    2.210276E-10    5.157969E-09    7.277206E-08    4.543292E-07    7.277206E-08    5.157969E-09    2.210276E-10    6.360203E-12
         1.274604E-13    1.709930E-15    7.441829E-18   -5.216182E-19   -2.661278E-20   -8.976648E-22   -2.439429E-23   -5.537062E-25   -1.074388E-26   -1.831117E-28
        -2.862658E-30
  25    -3.395238E-32   -2.594705E-30   -1.827834E-28   -1.132352E-26   -5.980005E-25   -2.625933E-23   -9.395178E-22   -2.649492E-20   -4.948752E-19    3.832845E-18
         1.008047E-15    6.239022E-14    2.441248E-12    6.219779E-11    9.431954E-10    6.279217E-09    9.431954E-10    6.219779E-11    2.441247E-12    6.239006E-14
         1.007988E-15    3.818083E-18   -4.965938E-19   -2.661278E-20   -9.450634E-22   -2.645280E-23   -6.032699E-25   -1.144021E-26   -1.849609E-28   -2.630165E-30
        -3.448054E-32
  26    -2.851232E-34   -2.690861E-32   -2.348251E-30   -1.793815E-28   -1.156983E-26   -6.135958E-25   -2.625402E-23   -8.926215E-22   -2.349065E-20   -4.214159E-19
        -2.223510E-19    3.951738E-16    2.014949E-14    5.797721E-13    9.484243E-12    6.694385E-11    9.484243E-12    5.797718E-13    2.014937E-14    3.951505E-16
        -2.293116E-19   -4.224721E-19   -2.358120E-20   -8.976648E-22   -2.645280E-23   -6.194627E-25   -1.170506E-26   -1.819040E-28   -2.387687E-30   -2.744568E-32
        -2.918461E-34
  27    -1.567300E-36   -1.946375E-34   -2.226645E-32   -2.188689E-30   -1.773925E-28   -1.156674E-26   -5.977339E-25   -2.422866E-23   -7.629816E-22   -1.832138E-20
        -3.100430E-19   -2.020699E-18    8.900820E-17    3.899521E-15    7.387545E-14    5.624785E-13    7.387540E-14    3.899494E-15    8.900093E-17   -2.022885E-18
        -3.104893E-19   -1.837220E-20   -7.665241E-22   -2.439429E-23   -6.032699E-25   -1.170506E-26   -1.800651E-28   -2.229863E-30   -2.278985E-32   -2.003868E-34
        -1.625807E-36
  28    -4.722107E-39   -9.029544E-37   -1.517500E-34   -2.062122E-32   -2.187896E-30   -1.792747E-28   -1.131533E-26   -5.493210E-25   -2.044777E-23   -5.800229E-22
        -1.237085E-20   -1.901992E-19   -1.739904E-18    3.213377E-18    3.522908E-16    3.363939E-15    3.522881E-16    3.211922E-18   -1.740389E-18   -1.903261E-19
        -1.239103E-20   -5.818964E-22   -2.055776E-23   -5.537062E-25   -1.144021E-26   -1.819040E-28   -2.229863E-30   -2.114028E-32   -1.568762E-34   -9.456986E-37
        -5.056369E-39
  29    -2.479450E-42   -2.118046E-39   -7.113935E-37   -1.516646E-34   -2.224755E-32   -2.345914E-30   -1.825939E-28   -1.064648E-26   -4.678615E-25   -1.548426E-23
        -3.835304E-22   -7.038607E-21   -9.431263E-20   -8.731096E-19   -4.129282E-18   -3.773924E-18   -4.129416E-18   -8.731869E-19   -9.433730E-20   -7.044054E-21
        -3.842462E-22   -1.554056E-23   -4.707004E-25   -1.074388E-26   -1.849609E-28   -2.387687E-30   -2.278985E-32   -1.568762E-34   -7.489006E-37   -2.331342E-39
        -3.626876E-42
  30     2.205846E-44    7.382170E-43   -2.114769E-39   -9.015922E-37   -1.943434E-34   -2.686876E-32   -2.591098E-30   -1.812327E-28   -9.362189E-27   -3.590954E-25
        -1.018801E-23   -2.119878E-22   -3.220754E-21   -3.556465E-20   -2.540300E-19   -1.066925E-18   -2.540358E-19   -3.556800E-20   -3.221741E-21   -2.121756E-22
        -1.020917E-23   -3.605369E-25   -9.425419E-27   -1.831117E-28   -2.630165E-30   -2.744568E-32   -2.003868E-34   -9.456986E-37   -2.331342E-39    4.086730E-44
         2.013537E-44
  31      0.00000        2.209344E-44   -2.443370E-42   -4.706480E-39   -1.563475E-36   -2.845320E-34   -3.389163E-32   -2.829687E-30   -1.707804E-28   -7.534297E-27
        -2.425304E-25   -5.642960E-24   -9.433032E-23   -1.138181E-21   -9.254686E-21   -4.764759E-20   -9.254908E-21   -1.138304E-21   -9.436369E-23   -5.648578E-24
        -2.430848E-25   -7.567449E-27   -1.720550E-28   -2.862658E-30   -3.448054E-32   -2.918461E-34   -1.625807E-36   -5.056369E-39   -3.626876E-42    2.013537E-44
          0.00000    

 CONCENTRATION WILL BE SAVED ON UNIT 1030 AT END OF TIME STEP   67, STRESS PERIOD    2


  MASS BUDGET FOR ENTIRE MODEL AT END OF TIME STEP   67, STRESS PERIOD   2
  ---------------------------------------------------------------------------------------------------

     CUMULATIVE MASS      M       RATES FOR THIS TIME STEP      M/T          PACKAGE NAME    
     ------------------                 ------------------------                     ----------------

           IN:                                      IN:
           ---                                      ---
     STORAGE-AQUEOUS =  7118588691.8841       STORAGE-AQUEOUS =     1061418.1218     MST                              
                 WEL =  7884000000.0000                   WEL =           0.0000     SSM_WEL-1                        
                 CHD =           0.0000                   CHD =           0.0000     SSM_CHD-1                        

            TOTAL IN = 15002588691.8841              TOTAL IN =     1061418.1218

          OUT:                                     OUT:
          ----                                     ----
     STORAGE-AQUEOUS =  7888713129.0672       STORAGE-AQUEOUS =          21.1936     MST                              
                 WEL =  7113875562.8170                   WEL =     1061396.9281     SSM_WEL-1                        
                 CHD =       7.5562E-18                   CHD =           0.0000     SSM_CHD-1                        

           TOTAL OUT = 15002588691.8842             TOTAL OUT =     1061418.1218

            IN - OUT =      -1.0300E-04              IN - OUT =      -2.7940E-08

 PERCENT DISCREPANCY =          -0.00     PERCENT DISCREPANCY =          -0.00




         TIME SUMMARY AT END OF TIME STEP   67 IN STRESS PERIOD    2
                    SECONDS     MINUTES      HOURS       DAYS        YEARS
                    -----------------------------------------------------------
   TIME STEP LENGTH 2.16991E+06  36165.      602.75      25.115     6.87602E-02
 STRESS PERIOD TIME 1.45384E+08 2.42306E+06  40384.      1682.7      4.6069    
         TOTAL TIME 2.24224E+08 3.73706E+06  62284.      2595.2      7.1052    


end timestep


start timestep kper="2" kstp="68" mode="normal"

 UBDSV1 SAVING  STORAGE-AQUEOUS ON UNIT   1029 AT TIME STEP     68, STRESS PERIOD      2
 UBDSV1 SAVING     FLOW-JA-FACE ON UNIT   1029 AT TIME STEP     68, STRESS PERIOD      2
 UBDSV06 SAVING  SOURCE-SINK MIX IN MODEL GWT_P06-MF6      PACKAGE GWT_P06-MF6     CONNECTED TO MODEL GWT_P06-MF6      PACKAGE SSM              ON UNIT   1029 AT TIME STEP     68, STRESS PERIOD      2
1
  CONCENTRATION IN LAYER   1 AT END OF TIME STEP  68 IN STRESS PERIOD    2
  ---------------------------------------------------------------------------

                1               2               3               4               5               6               7               8               9              10
               11              12              13              14              15              16              17              18              19              20
               21              22              23              24              25              26              27              28              29              30
               31
 ................................................................................................................................................................................................................................................................................................................................................................................................................................................................................................................
   1      0.00000        1.978342E-44   -4.582765E-42   -5.513401E-39   -1.736380E-36   -3.085013E-34   -3.618215E-32   -2.985584E-30   -1.784560E-28   -7.809006E-27
        -2.496725E-25   -5.777971E-24   -9.619855E-23   -1.156596E-21   -9.368532E-21   -4.794889E-20   -9.368332E-21   -1.156493E-21   -9.617220E-23   -5.773587E-24
        -2.492284E-25   -7.781400E-27   -1.773516E-28   -2.955942E-30   -3.563489E-32   -3.015022E-34   -1.675172E-36   -5.161888E-39   -3.368959E-42    2.183323E-44
          0.00000    
   2     1.978342E-44   -4.171045E-43   -2.566334E-39   -1.011046E-36   -2.117661E-34   -2.878981E-32   -2.742711E-30   -1.899492E-28   -9.729832E-27   -3.704753E-25
        -1.044592E-23   -2.162646E-22   -3.272073E-21   -3.595749E-20   -2.550728E-19   -1.060133E-18   -2.550676E-19   -3.595467E-20   -3.271291E-21   -2.161176E-22
        -1.042890E-23   -3.692684E-25   -9.674693E-27   -1.882478E-28   -2.706130E-30   -2.823344E-32   -2.057851E-34   -9.663838E-37   -2.342374E-39    3.196655E-43
         2.187083E-44
   3    -4.582765E-42   -2.566334E-39   -8.011577E-37   -1.657524E-34   -2.389599E-32   -2.489005E-30   -1.918384E-28   -1.109160E-26   -4.837955E-25   -1.590595E-23
        -3.916944E-22   -7.149342E-21   -9.508422E-20   -8.651777E-19   -3.853468E-18   -1.461968E-18   -3.853348E-18   -8.651124E-19   -9.506455E-20   -7.145066E-21
        -3.911160E-22   -1.585851E-23   -4.813001E-25   -1.100262E-26   -1.896009E-28   -2.448324E-30   -2.335396E-32   -1.604226E-34   -7.619882E-37   -2.338910E-39
        -3.330504E-42
   4    -5.513401E-39   -1.011046E-36   -1.657524E-34   -2.216209E-32   -2.323825E-30   -1.886229E-28   -1.180911E-26   -5.691335E-25   -2.104470E-23   -5.932409E-22
        -1.256608E-20   -1.907546E-19   -1.660126E-18    6.085706E-18    4.007262E-16    3.705785E-15    4.007285E-16    6.086946E-18   -1.659734E-18   -1.906544E-19
        -1.254968E-20   -5.916493E-22   -2.094704E-23   -5.650817E-25   -1.168965E-26   -1.860306E-28   -2.281355E-30   -2.162464E-32   -1.603334E-34   -9.649529E-37
        -5.145354E-39
   5    -1.736380E-36   -2.117661E-34   -2.389599E-32   -2.323825E-30   -1.866956E-28   -1.208110E-26   -6.200468E-25   -2.497313E-23   -7.814595E-22   -1.861157E-20
        -3.085337E-19   -1.673280E-18    1.043235E-16    4.305335E-15    8.003872E-14    6.027975E-13    8.003877E-14    4.305358E-15    1.043296E-16   -1.671527E-18
        -3.081679E-19   -1.856794E-20   -7.782741E-22   -2.481792E-23   -6.146710E-25   -1.194263E-26   -1.839489E-28   -2.280535E-30   -2.333433E-32   -2.054778E-34
        -1.671151E-36
   6    -3.085013E-34   -2.878981E-32   -2.489005E-30   -1.886229E-28   -1.208110E-26   -6.366699E-25   -2.708022E-23   -9.150835E-22   -2.386126E-20   -4.154276E-19
         7.171065E-19    4.465609E-16    2.202476E-14    6.243569E-13    1.010991E-11    7.075490E-11    1.010991E-11    6.243573E-13    2.202486E-14    4.465805E-16
         7.228678E-19   -4.145086E-19   -2.377852E-20   -9.102730E-22   -2.688357E-23   -6.306841E-25   -1.193946E-26   -1.859206E-28   -2.445907E-30   -2.819204E-32
        -3.008845E-34
   7    -3.618215E-32   -2.742711E-30   -1.918384E-28   -1.180911E-26   -6.200468E-25   -2.708022E-23   -9.633614E-22   -2.690895E-20   -4.837786E-19    5.572814E-18
         1.124768E-15    6.785331E-14    2.618997E-12    6.603892E-11    9.925291E-10    6.553850E-09    9.925291E-10    6.603892E-11    2.618998E-12    6.785347E-14
         1.124819E-15    5.585835E-18   -4.821759E-19   -2.679398E-20   -9.577465E-22   -2.687818E-23   -6.143989E-25   -1.168125E-26   -1.894058E-28   -2.702400E-30
        -3.557177E-32
   8    -2.985584E-30   -1.899492E-28   -1.109160E-26   -5.691335E-25   -2.497313E-23   -9.150835E-22   -2.690895E-20   -5.062091E-19    9.812076E-18    1.897861E-15
         1.382342E-13    6.805509E-12    2.339374E-10    5.406335E-09    7.560660E-08    4.682158E-07    7.560660E-08    5.406335E-09    2.339374E-10    6.805509E-12
         1.382344E-13    1.897960E-15    9.831935E-18   -5.042363E-19   -2.679012E-20   -9.099776E-22   -2.480480E-23   -5.646605E-25   -1.099190E-26   -1.880186E-28
        -2.951570E-30
   9    -1.784560E-28   -9.729832E-27   -4.837955E-25   -2.104470E-23   -7.814595E-22   -2.386126E-20   -4.837786E-19    9.812076E-18    2.249432E-15    1.952394E-13
         1.177231E-11    5.134444E-10    1.590990E-08    3.340550E-07    4.287413E-06    2.457704E-05    4.287413E-06    3.340550E-07    1.590990E-08    5.134444E-10
         1.177231E-11    1.952397E-13    2.249559E-15    9.832749E-18   -4.820546E-19   -2.376998E-20   -7.778736E-22   -2.093295E-23   -4.809011E-25   -9.665137E-27
        -1.771471E-28
  10    -7.809006E-27   -3.704753E-25   -1.590595E-23   -5.932409E-22   -1.861157E-20   -4.154276E-19    5.572814E-18    1.897861E-15    1.952394E-13    1.407681E-11
         7.485902E-10    2.902219E-08    7.968940E-07    1.483661E-05    1.707015E-04    8.882745E-04    1.707015E-04    1.483661E-05    7.968940E-07    2.902219E-08
         7.485903E-10    1.407681E-11    1.952397E-13    1.897967E-15    5.587449E-18   -4.143680E-19   -1.856034E-20   -5.913451E-22   -1.584878E-23   -3.690064E-25
        -7.775112E-27
  11    -2.496725E-25   -1.044592E-23   -3.916944E-22   -1.256608E-20   -3.085337E-19    7.171065E-19    1.124768E-15    1.382342E-13    1.177231E-11    7.485902E-10
         3.520316E-08    1.189813E-06    2.803235E-05    4.451592E-04    4.425302E-03    2.029289E-02    4.425302E-03    4.451592E-04    2.803235E-05    1.189813E-06
         3.520316E-08    7.485903E-10    1.177231E-11    1.382344E-13    1.124826E-15    7.240137E-19   -3.080858E-19   -1.254574E-20   -3.909703E-22   -1.042444E-23
        -2.491080E-25
  12    -5.777971E-24   -2.162646E-22   -7.149342E-21   -1.907546E-19   -1.673280E-18    4.465609E-16    6.785331E-14    6.805509E-12    5.134444E-10    2.902219E-08
         1.189813E-06    3.405104E-05    6.575951E-04    8.395490E-03    6.801958E-02    0.262262        6.801958E-02    8.395490E-03    6.575951E-04    3.405104E-05
         1.189813E-06    2.902219E-08    5.134444E-10    6.805509E-12    6.785347E-14    4.465840E-16   -1.671093E-18   -1.906272E-19   -7.143852E-21   -2.160746E-22
        -5.772270E-24
  13    -9.619855E-23   -3.272073E-21   -9.508422E-20   -1.660126E-18    1.043235E-16    2.202476E-14    2.618997E-12    2.339374E-10    1.590990E-08    7.968940E-07
         2.803235E-05    6.575951E-04    9.850591E-03    9.299232E-02    0.562118         1.69859        0.562118        9.299232E-02    9.850591E-03    6.575951E-04
         2.803235E-05    7.968940E-07    1.590990E-08    2.339374E-10    2.618998E-12    2.202487E-14    1.043308E-16   -1.659640E-18   -9.505940E-20   -3.271077E-21
        -9.616478E-23
  14    -1.156596E-21   -3.595749E-20   -8.651777E-19    6.085706E-18    4.305335E-15    6.243569E-13    6.603892E-11    5.406335E-09    3.340550E-07    1.483661E-05
         4.451592E-04    8.395490E-03    9.299232E-02    0.595606         2.41073         5.27798         2.41073        0.595606        9.299232E-02    8.395490E-03
         4.451592E-04    1.483661E-05    3.340550E-07    5.406335E-09    6.603892E-11    6.243573E-13    4.305362E-15    6.087161E-18   -8.651000E-19   -3.595411E-20
        -1.156472E-21
  15    -9.368532E-21   -2.550728E-19   -3.853468E-18    4.007262E-16    8.003872E-14    1.010991E-11    9.925291E-10    7.560660E-08    4.287413E-06    1.707015E-04
         4.425302E-03    6.801958E-02    0.562118         2.41073         6.60446         9.09581         6.60446         2.41073        0.562118        6.801958E-02
         4.425302E-03    1.707015E-04    4.287413E-06    7.560660E-08    9.925291E-10    1.010991E-11    8.003877E-14    4.007289E-16   -3.853333E-18   -2.550669E-19
        -9.368308E-21
  16    -4.794889E-20   -1.060133E-18   -1.461968E-18    3.705785E-15    6.027975E-13    7.075490E-11    6.553850E-09    4.682158E-07    2.457704E-05    8.882745E-04
         2.029289E-02    0.262262         1.69859         5.27798         9.09581         11.8444         9.09581         5.27798         1.69859        0.262262    
         2.029289E-02    8.882745E-04    2.457704E-05    4.682158E-07    6.553850E-09    7.075490E-11    6.027975E-13    3.705785E-15   -1.461968E-18   -1.060133E-18
        -4.794889E-20
  17    -9.368332E-21   -2.550676E-19   -3.853348E-18    4.007285E-16    8.003877E-14    1.010991E-11    9.925291E-10    7.560660E-08    4.287413E-06    1.707015E-04
         4.425302E-03    6.801958E-02    0.562118         2.41073         6.60446         9.09581         6.60446         2.41073        0.562118        6.801958E-02
         4.425302E-03    1.707015E-04    4.287413E-06    7.560660E-08    9.925291E-10    1.010991E-11    8.003872E-14    4.007262E-16   -3.853467E-18   -2.550728E-19
        -9.368532E-21
  18    -1.156493E-21   -3.595467E-20   -8.651124E-19    6.086946E-18    4.305358E-15    6.243573E-13    6.603892E-11    5.406335E-09    3.340550E-07    1.483661E-05
         4.451592E-04    8.395490E-03    9.299232E-02    0.595606         2.41073         5.27798         2.41073        0.595606        9.299232E-02    8.395490E-03
         4.451592E-04    1.483661E-05    3.340550E-07    5.406335E-09    6.603892E-11    6.243569E-13    4.305335E-15    6.085707E-18   -8.651777E-19   -3.595749E-20
        -1.156596E-21
  19    -9.617220E-23   -3.271291E-21   -9.506455E-20   -1.659734E-18    1.043296E-16    2.202486E-14    2.618998E-12    2.339374E-10    1.590990E-08    7.968940E-07
         2.803235E-05    6.575951E-04    9.850591E-03    9.299232E-02    0.562118         1.69859        0.562118        9.299232E-02    9.850591E-03    6.575951E-04
         2.803235E-05    7.968940E-07    1.590990E-08    2.339374E-10    2.618997E-12    2.202476E-14    1.043235E-16   -1.660126E-18   -9.508422E-20   -3.272072E-21
        -9.619855E-23
  20    -5.773587E-24   -2.161176E-22   -7.145066E-21   -1.906544E-19   -1.671527E-18    4.465805E-16    6.785347E-14    6.805509E-12    5.134444E-10    2.902219E-08
         1.189813E-06    3.405104E-05    6.575951E-04    8.395490E-03    6.801958E-02    0.262262        6.801958E-02    8.395490E-03    6.575951E-04    3.405104E-05
         1.189813E-06    2.902219E-08    5.134444E-10    6.805509E-12    6.785331E-14    4.465609E-16   -1.673280E-18   -1.907546E-19   -7.149342E-21   -2.162646E-22
        -5.777971E-24
  21    -2.492284E-25   -1.042890E-23   -3.911160E-22   -1.254968E-20   -3.081679E-19    7.228678E-19    1.124819E-15    1.382344E-13    1.177231E-11    7.485903E-10
         3.520316E-08    1.189813E-06    2.803235E-05    4.451592E-04    4.425302E-03    2.029289E-02    4.425302E-03    4.451592E-04    2.803235E-05    1.189813E-06
         3.520316E-08    7.485902E-10    1.177231E-11    1.382342E-13    1.124768E-15    7.171065E-19   -3.085337E-19   -1.256608E-20   -3.916944E-22   -1.044592E-23
        -2.496725E-25
  22    -7.781400E-27   -3.692684E-25   -1.585851E-23   -5.916493E-22   -1.856794E-20   -4.145086E-19    5.585835E-18    1.897960E-15    1.952397E-13    1.407681E-11
         7.485903E-10    2.902219E-08    7.968940E-07    1.483661E-05    1.707015E-04    8.882745E-04    1.707015E-04    1.483661E-05    7.968940E-07    2.902219E-08
         7.485902E-10    1.407681E-11    1.952394E-13    1.897861E-15    5.572814E-18   -4.154276E-19   -1.861157E-20   -5.932409E-22   -1.590595E-23   -3.704753E-25
        -7.809006E-27
  23    -1.773516E-28   -9.674693E-27   -4.813001E-25   -2.094704E-23   -7.782741E-22   -2.377852E-20   -4.821759E-19    9.831935E-18    2.249559E-15    1.952397E-13
         1.177231E-11    5.134444E-10    1.590990E-08    3.340550E-07    4.287413E-06    2.457704E-05    4.287413E-06    3.340550E-07    1.590990E-08    5.134444E-10
         1.177231E-11    1.952394E-13    2.249432E-15    9.812076E-18   -4.837786E-19   -2.386126E-20   -7.814595E-22   -2.104470E-23   -4.837955E-25   -9.729832E-27
        -1.784560E-28
  24    -2.955942E-30   -1.882478E-28   -1.100262E-26   -5.650817E-25   -2.481792E-23   -9.102730E-22   -2.679398E-20   -5.042363E-19    9.832749E-18    1.897967E-15
         1.382344E-13    6.805509E-12    2.339374E-10    5.406335E-09    7.560660E-08    4.682158E-07    7.560660E-08    5.406335E-09    2.339374E-10    6.805509E-12
         1.382342E-13    1.897861E-15    9.812076E-18   -5.062091E-19   -2.690895E-20   -9.150835E-22   -2.497313E-23   -5.691335E-25   -1.109160E-26   -1.899492E-28
        -2.985584E-30
  25    -3.563489E-32   -2.706130E-30   -1.896009E-28   -1.168965E-26   -6.146710E-25   -2.688357E-23   -9.577465E-22   -2.679012E-20   -4.820546E-19    5.587449E-18
         1.124826E-15    6.785347E-14    2.618998E-12    6.603892E-11    9.925291E-10    6.553850E-09    9.925291E-10    6.603892E-11    2.618997E-12    6.785331E-14
         1.124768E-15    5.572814E-18   -4.837786E-19   -2.690895E-20   -9.633614E-22   -2.708022E-23   -6.200468E-25   -1.180911E-26   -1.918384E-28   -2.742710E-30
        -3.618215E-32
  26    -3.015022E-34   -2.823344E-32   -2.448324E-30   -1.860306E-28   -1.194263E-26   -6.306841E-25   -2.687818E-23   -9.099776E-22   -2.376998E-20   -4.143680E-19
         7.240137E-19    4.465840E-16    2.202487E-14    6.243573E-13    1.010991E-11    7.075490E-11    1.010991E-11    6.243569E-13    2.202476E-14    4.465609E-16
         7.171065E-19   -4.154276E-19   -2.386126E-20   -9.150835E-22   -2.708022E-23   -6.366699E-25   -1.208110E-26   -1.886229E-28   -2.489005E-30   -2.878981E-32
        -3.085013E-34
  27    -1.675172E-36   -2.057851E-34   -2.335396E-32   -2.281355E-30   -1.839489E-28   -1.193946E-26   -6.143989E-25   -2.480480E-23   -7.778736E-22   -1.856034E-20
        -3.080858E-19   -1.671093E-18    1.043308E-16    4.305362E-15    8.003877E-14    6.027975E-13    8.003872E-14    4.305335E-15    1.043235E-16   -1.673280E-18
        -3.085337E-19   -1.861157E-20   -7.814595E-22   -2.497313E-23   -6.200468E-25   -1.208110E-26   -1.866956E-28   -2.323825E-30   -2.389598E-32   -2.117661E-34
        -1.736380E-36
  28    -5.161888E-39   -9.663838E-37   -1.604226E-34   -2.162464E-32   -2.280535E-30   -1.859206E-28   -1.168125E-26   -5.646605E-25   -2.093295E-23   -5.913451E-22
        -1.254574E-20   -1.906272E-19   -1.659640E-18    6.087161E-18    4.007289E-16    3.705785E-15    4.007262E-16    6.085707E-18   -1.660126E-18   -1.907546E-19
        -1.256608E-20   -5.932409E-22   -2.104470E-23   -5.691335E-25   -1.180911E-26   -1.886229E-28   -2.323825E-30   -2.216209E-32   -1.657524E-34   -1.011046E-36
        -5.513401E-39
  29    -3.368959E-42   -2.342374E-39   -7.619882E-37   -1.603334E-34   -2.333433E-32   -2.445907E-30   -1.894058E-28   -1.099190E-26   -4.809011E-25   -1.584878E-23
        -3.909703E-22   -7.143852E-21   -9.505940E-20   -8.651000E-19   -3.853333E-18   -1.461968E-18   -3.853467E-18   -8.651777E-19   -9.508422E-20   -7.149342E-21
        -3.916944E-22   -1.590595E-23   -4.837955E-25   -1.109160E-26   -1.918384E-28   -2.489005E-30   -2.389598E-32   -1.657524E-34   -8.011577E-37   -2.566334E-39
        -4.582765E-42
  30     2.183323E-44    3.196655E-43   -2.338910E-39   -9.649529E-37   -2.054778E-34   -2.819204E-32   -2.702400E-30   -1.880186E-28   -9.665137E-27   -3.690064E-25
        -1.042444E-23   -2.160746E-22   -3.271077E-21   -3.595411E-20   -2.550669E-19   -1.060133E-18   -2.550728E-19   -3.595749E-20   -3.272072E-21   -2.162646E-22
        -1.044592E-23   -3.704753E-25   -9.729832E-27   -1.899492E-28   -2.742710E-30   -2.878981E-32   -2.117661E-34   -1.011046E-36   -2.566334E-39   -4.171043E-43
         1.978342E-44
  31      0.00000        2.187083E-44   -3.330504E-42   -5.145354E-39   -1.671151E-36   -3.008845E-34   -3.557177E-32   -2.951570E-30   -1.771471E-28   -7.775112E-27
        -2.491080E-25   -5.772270E-24   -9.616478E-23   -1.156472E-21   -9.368308E-21   -4.794889E-20   -9.368532E-21   -1.156596E-21   -9.619855E-23   -5.777971E-24
        -2.496725E-25   -7.809006E-27   -1.784560E-28   -2.985584E-30   -3.618215E-32   -3.085013E-34   -1.736380E-36   -5.513401E-39   -4.582765E-42    1.978342E-44
          0.00000    

 CONCENTRATION WILL BE SAVED ON UNIT 1030 AT END OF TIME STEP   68, STRESS PERIOD    2


  MASS BUDGET FOR ENTIRE MODEL AT END OF TIME STEP   68, STRESS PERIOD   2
  ---------------------------------------------------------------------------------------------------

     CUMULATIVE MASS      M       RATES FOR THIS TIME STEP      M/T          PACKAGE NAME    
     ------------------                 ------------------------                     ----------------

           IN:                                      IN:
           ---                                      ---
     STORAGE-AQUEOUS =  7144290434.4375       STORAGE-AQUEOUS =     1023375.3199     MST                              
                 WEL =  7884000000.0000                   WEL =           0.0000     SSM_WEL-1                        
                 CHD =           0.0000                   CHD =           0.0000     SSM_CHD-1                        

            TOTAL IN = 15028290434.4375              TOTAL IN =     1023375.3199

          OUT:                                     OUT:
          ----                                     ----
     STORAGE-AQUEOUS =  7888713632.3174       STORAGE-AQUEOUS =          20.0381     MST                              
                 WEL =  7139576802.1202                   WEL =     1023355.2818     SSM_WEL-1                        
                 CHD =       7.5562E-18                   CHD =           0.0000     SSM_CHD-1                        

           TOTAL OUT = 15028290434.4376             TOTAL OUT =     1023375.3199

            IN - OUT =      -1.0681E-04              IN - OUT =      -2.9569E-08

 PERCENT DISCREPANCY =          -0.00     PERCENT DISCREPANCY =          -0.00




         TIME SUMMARY AT END OF TIME STEP   68 IN STRESS PERIOD    2
                    SECONDS     MINUTES      HOURS       DAYS        YEARS
                    -----------------------------------------------------------
   TIME STEP LENGTH 2.16991E+06  36165.      602.75      25.115     6.87602E-02
 STRESS PERIOD TIME 1.47554E+08 2.45923E+06  40987.      1707.8      4.6757    
         TOTAL TIME 2.26394E+08 3.77323E+06  62887.      2620.3      7.1740    


end timestep


start timestep kper="2" kstp="69" mode="normal"

 UBDSV1 SAVING  STORAGE-AQUEOUS ON UNIT   1029 AT TIME STEP     69, STRESS PERIOD      2
 UBDSV1 SAVING     FLOW-JA-FACE ON UNIT   1029 AT TIME STEP     69, STRESS PERIOD      2
 UBDSV06 SAVING  SOURCE-SINK MIX IN MODEL GWT_P06-MF6      PACKAGE GWT_P06-MF6     CONNECTED TO MODEL GWT_P06-MF6      PACKAGE SSM              ON UNIT   1029 AT TIME STEP     69, STRESS PERIOD      2
1
  CONCENTRATION IN LAYER   1 AT END OF TIME STEP  69 IN STRESS PERIOD    2
  ---------------------------------------------------------------------------

                1               2               3               4               5               6               7               8               9              10
               11              12              13              14              15              16              17              18              19              20
               21              22              23              24              25              26              27              28              29              30
               31
 ................................................................................................................................................................................................................................................................................................................................................................................................................................................................................................................
   1      0.00000        1.932974E-44   -5.625034E-42   -6.001111E-39   -1.853153E-36   -3.259628E-34   -3.795540E-32   -3.112994E-30   -1.850572E-28   -8.056954E-27
        -2.564058E-25   -5.909721E-24   -9.805963E-23   -1.175047E-21   -9.482037E-21   -4.824332E-20   -9.481835E-21   -1.174943E-21   -9.803296E-23   -5.905273E-24
        -2.559536E-25   -8.028734E-27   -1.839234E-28   -3.082427E-30   -3.738846E-32   -3.186777E-34   -1.789136E-36   -5.631567E-39   -4.341491E-42    2.151350E-44
          0.00000    
   2     1.932974E-44   -9.192953E-43   -2.817285E-39   -1.080038E-36   -2.236916E-34   -3.019021E-32   -2.859361E-30   -1.970019E-28   -1.004239E-26   -3.806355E-25
        -1.068695E-23   -2.204083E-22   -3.322642E-21   -3.633881E-20   -2.559148E-19   -1.051891E-18   -2.559095E-19   -3.633598E-20   -3.321853E-21   -2.202597E-22
        -1.066968E-23   -3.794060E-25   -9.985990E-27   -1.952543E-28   -2.821629E-30   -2.961395E-32   -2.174707E-34   -1.033381E-36   -2.582190E-39   -1.411489E-43
         2.155390E-44
   3    -5.625034E-42   -2.817285E-39   -8.563220E-37   -1.750517E-34   -2.504809E-32   -2.594003E-30   -1.989325E-28   -1.144869E-26   -4.971861E-25   -1.627797E-23
        -3.992334E-22   -7.254327E-21   -9.576713E-20   -8.551709E-19   -3.546169E-18    1.045994E-18   -3.546049E-18   -8.551053E-19   -9.574733E-20   -7.250016E-21
        -3.986483E-22   -1.622980E-23   -4.946423E-25   -1.135763E-26   -1.966335E-28   -2.552042E-30   -2.448686E-32   -1.695112E-34   -8.154246E-37   -2.578530E-39
        -4.300524E-42
   4    -6.001111E-39   -1.080038E-36   -1.750517E-34   -2.322622E-32   -2.421184E-30   -1.955527E-28   -1.218796E-26   -5.849103E-25   -2.154045E-23   -6.047060E-22
        -1.273845E-20   -1.909049E-19   -1.568614E-18    9.222202E-18    4.528979E-16    4.070322E-15    4.529003E-16    9.223441E-18   -1.568221E-18   -1.908042E-19
        -1.272192E-20   -6.030956E-22   -2.144125E-23   -5.807783E-25   -1.206566E-26   -1.928889E-28   -2.377382E-30   -2.266981E-32   -1.694181E-34   -1.031879E-36
        -5.614080E-39
   5    -1.853153E-36   -2.236916E-34   -2.504809E-32   -2.421184E-30   -1.935339E-28   -1.246726E-26   -6.372043E-25   -2.556238E-23   -7.965275E-22   -1.884316E-20
        -3.057845E-19   -1.282981E-18    1.209613E-16    4.740530E-15    8.658427E-14    6.452494E-13    8.658432E-14    4.740553E-15    1.209674E-16   -1.281227E-18
        -3.054173E-19   -1.879918E-20   -7.933036E-22   -2.540467E-23   -6.317207E-25   -1.232548E-26   -1.907114E-28   -2.376534E-30   -2.446647E-32   -2.171498E-34
        -1.784911E-36
   6    -3.259628E-34   -3.019021E-32   -2.594003E-30   -1.955527E-28   -1.246726E-26   -6.542675E-25   -2.771887E-23   -9.326322E-22   -2.412684E-20   -4.067782E-19
         1.758096E-18    5.021809E-16    2.402907E-14    6.715279E-13    1.076579E-11    7.471549E-11    1.076579E-11    6.715282E-13    2.402917E-14    5.022005E-16
         1.763816E-18   -4.058563E-19   -2.404344E-20   -9.277624E-22   -2.751901E-23   -6.481609E-25   -1.232224E-26   -1.927757E-28   -2.549543E-30   -2.957094E-32
        -3.180325E-34
   7    -3.795540E-32   -2.859361E-30   -1.989325E-28   -1.218796E-26   -6.372043E-25   -2.771887E-23   -9.817858E-22   -2.718572E-20   -4.685512E-19    7.497010E-18
         1.250809E-15    7.367712E-14    2.806441E-12    7.004882E-11    1.043544E-09    6.835282E-09    1.043544E-09    7.004882E-11    2.806441E-12    7.367728E-14
         1.250860E-15    7.509921E-18   -4.669438E-19   -2.706982E-20   -9.761013E-22   -2.751352E-23   -6.314427E-25   -1.205705E-26   -1.964327E-28   -2.817774E-30
        -3.732290E-32
   8    -3.112994E-30   -1.970019E-28   -1.144869E-26   -5.849103E-25   -2.556238E-23   -9.326322E-22   -2.718572E-20   -4.880426E-19    1.240761E-17    2.100408E-15
         1.496983E-13    7.273879E-12    2.473651E-10    5.661926E-09    7.849431E-08    4.822236E-07    7.849431E-08    5.661926E-09    2.473651E-10    7.273879E-12
         1.496986E-13    2.100505E-15    1.242729E-17   -4.860642E-19   -2.706593E-20   -9.274632E-22   -2.539132E-23   -5.803483E-25   -1.134664E-26   -1.950185E-28
        -3.077909E-30
   9    -1.850572E-28   -1.004239E-26   -4.971861E-25   -2.154045E-23   -7.965275E-22   -2.412684E-20   -4.685512E-19    1.240761E-17    2.486054E-15    2.111694E-13
         1.256286E-11    5.416834E-10    1.660841E-08    3.453542E-07    4.394032E-06    2.499010E-05    4.394032E-06    3.453542E-07    1.660841E-08    5.416835E-10
         1.256286E-11    2.111697E-13    2.486180E-15    1.242810E-17   -4.668222E-19   -2.403482E-20   -7.928981E-22   -2.142693E-23   -4.942352E-25   -9.976206E-27
        -1.837132E-28
  10    -8.056954E-27   -3.806355E-25   -1.627797E-23   -6.047060E-22   -1.884316E-20   -4.067782E-19    7.497010E-18    2.100408E-15    2.111694E-13    1.501422E-11
         7.888123E-10    3.023094E-08    8.210993E-07    1.513699E-05    1.726589E-04    8.915918E-04    1.726589E-04    1.513699E-05    8.210993E-07    3.023094E-08
         7.888123E-10    1.501421E-11    2.111697E-13    2.100513E-15    7.511519E-18   -4.057153E-19   -1.879152E-20   -6.027878E-22   -1.621991E-23   -3.791389E-25
        -8.022303E-27
  11    -2.564058E-25   -1.068695E-23   -3.992334E-22   -1.273845E-20   -3.057845E-19    1.758096E-18    1.250809E-15    1.496983E-13    1.256286E-11    7.888123E-10
         3.664142E-08    1.223642E-06    2.850501E-05    4.481359E-04    4.417379E-03    2.011046E-02    4.417379E-03    4.481359E-04    2.850501E-05    1.223642E-06
         3.664143E-08    7.888123E-10    1.256286E-11    1.496985E-13    1.250867E-15    1.764951E-18   -3.053350E-19   -1.271795E-20   -3.985010E-22   -1.066515E-23
        -2.558310E-25
  12    -5.909721E-24   -2.204083E-22   -7.254327E-21   -1.909049E-19   -1.282981E-18    5.021809E-16    7.367712E-14    7.273879E-12    5.416834E-10    3.023094E-08
         1.223642E-06    3.458223E-05    6.600291E-04    8.341331E-03    6.704285E-02    0.256855        6.704285E-02    8.341331E-03    6.600291E-04    3.458223E-05
         1.223642E-06    3.023094E-08    5.416835E-10    7.273879E-12    7.367728E-14    5.022039E-16   -1.280794E-18   -1.907769E-19   -7.248793E-21   -2.202162E-22
        -5.903937E-24
  13    -9.805963E-23   -3.322642E-21   -9.576713E-20   -1.568614E-18    1.209613E-16    2.402907E-14    2.806441E-12    2.473651E-10    1.660841E-08    8.210993E-07
         2.850501E-05    6.600291E-04    9.768008E-03    9.129534E-02    0.548061         1.64840        0.548061        9.129534E-02    9.768008E-03    6.600291E-04
         2.850501E-05    8.210993E-07    1.660841E-08    2.473651E-10    2.806442E-12    2.402918E-14    1.209686E-16   -1.568127E-18   -9.574216E-20   -3.321638E-21
        -9.802546E-23
  14    -1.175047E-21   -3.633881E-20   -8.551709E-19    9.222202E-18    4.740530E-15    6.715279E-13    7.004882E-11    5.661926E-09    3.453542E-07    1.513699E-05
         4.481359E-04    8.341331E-03    9.129534E-02    0.579461         2.33391         5.09828         2.33391        0.579461        9.129534E-02    8.341331E-03
         4.481359E-04    1.513699E-05    3.453542E-07    5.661926E-09    7.004882E-11    6.715282E-13    4.740557E-15    9.223656E-18   -8.550928E-19   -3.633541E-20
        -1.174922E-21
  15    -9.482037E-21   -2.559148E-19   -3.546169E-18    4.528979E-16    8.658427E-14    1.076579E-11    1.043544E-09    7.849431E-08    4.394032E-06    1.726589E-04
         4.417379E-03    6.704285E-02    0.548061         2.33391         6.37734         8.77507         6.37734         2.33391        0.548061        6.704285E-02
         4.417379E-03    1.726589E-04    4.394032E-06    7.849431E-08    1.043544E-09    1.076579E-11    8.658432E-14    4.529007E-16   -3.546034E-18   -2.559089E-19
        -9.481811E-21
  16    -4.824332E-20   -1.051891E-18    1.045994E-18    4.070322E-15    6.452494E-13    7.471549E-11    6.835282E-09    4.822236E-07    2.499010E-05    8.915918E-04
         2.011046E-02    0.256855         1.64840         5.09828         8.77507         11.4207         8.77507         5.09828         1.64840        0.256855    
         2.011046E-02    8.915918E-04    2.499010E-05    4.822236E-07    6.835282E-09    7.471549E-11    6.452494E-13    4.070322E-15    1.045994E-18   -1.051891E-18
        -4.824332E-20
  17    -9.481835E-21   -2.559095E-19   -3.546049E-18    4.529003E-16    8.658432E-14    1.076579E-11    1.043544E-09    7.849431E-08    4.394032E-06    1.726589E-04
         4.417379E-03    6.704285E-02    0.548061         2.33391         6.37734         8.77507         6.37734         2.33391        0.548061        6.704285E-02
         4.417379E-03    1.726589E-04    4.394032E-06    7.849431E-08    1.043544E-09    1.076579E-11    8.658427E-14    4.528980E-16   -3.546169E-18   -2.559148E-19
        -9.482037E-21
  18    -1.174943E-21   -3.633598E-20   -8.551053E-19    9.223441E-18    4.740553E-15    6.715282E-13    7.004882E-11    5.661926E-09    3.453542E-07    1.513699E-05
         4.481359E-04    8.341331E-03    9.129534E-02    0.579461         2.33391         5.09828         2.33391        0.579461        9.129534E-02    8.341331E-03
         4.481359E-04    1.513699E-05    3.453542E-07    5.661926E-09    7.004882E-11    6.715279E-13    4.740530E-15    9.222203E-18   -8.551709E-19   -3.633881E-20
        -1.175047E-21
  19    -9.803296E-23   -3.321853E-21   -9.574733E-20   -1.568221E-18    1.209674E-16    2.402917E-14    2.806441E-12    2.473651E-10    1.660841E-08    8.210993E-07
         2.850501E-05    6.600291E-04    9.768008E-03    9.129534E-02    0.548061         1.64840        0.548061        9.129534E-02    9.768008E-03    6.600291E-04
         2.850501E-05    8.210993E-07    1.660841E-08    2.473651E-10    2.806441E-12    2.402907E-14    1.209613E-16   -1.568614E-18   -9.576712E-20   -3.322642E-21
        -9.805963E-23
  20    -5.905273E-24   -2.202597E-22   -7.250016E-21   -1.908042E-19   -1.281227E-18    5.022005E-16    7.367728E-14    7.273879E-12    5.416835E-10    3.023094E-08
         1.223642E-06    3.458223E-05    6.600291E-04    8.341331E-03    6.704285E-02    0.256855        6.704285E-02    8.341331E-03    6.600291E-04    3.458223E-05
         1.223642E-06    3.023094E-08    5.416834E-10    7.273879E-12    7.367712E-14    5.021809E-16   -1.282981E-18   -1.909049E-19   -7.254327E-21   -2.204083E-22
        -5.909721E-24
  21    -2.559536E-25   -1.066968E-23   -3.986483E-22   -1.272192E-20   -3.054173E-19    1.763816E-18    1.250860E-15    1.496986E-13    1.256286E-11    7.888123E-10
         3.664143E-08    1.223642E-06    2.850501E-05    4.481359E-04    4.417379E-03    2.011046E-02    4.417379E-03    4.481359E-04    2.850501E-05    1.223642E-06
         3.664142E-08    7.888123E-10    1.256286E-11    1.496983E-13    1.250809E-15    1.758096E-18   -3.057845E-19   -1.273845E-20   -3.992334E-22   -1.068695E-23
        -2.564058E-25
  22    -8.028734E-27   -3.794060E-25   -1.622980E-23   -6.030956E-22   -1.879918E-20   -4.058563E-19    7.509921E-18    2.100505E-15    2.111697E-13    1.501421E-11
         7.888123E-10    3.023094E-08    8.210993E-07    1.513699E-05    1.726589E-04    8.915918E-04    1.726589E-04    1.513699E-05    8.210993E-07    3.023094E-08
         7.888123E-10    1.501422E-11    2.111694E-13    2.100408E-15    7.497010E-18   -4.067782E-19   -1.884316E-20   -6.047060E-22   -1.627797E-23   -3.806355E-25
        -8.056954E-27
  23    -1.839234E-28   -9.985990E-27   -4.946423E-25   -2.144125E-23   -7.933036E-22   -2.404344E-20   -4.669438E-19    1.242729E-17    2.486180E-15    2.111697E-13
         1.256286E-11    5.416835E-10    1.660841E-08    3.453542E-07    4.394032E-06    2.499010E-05    4.394032E-06    3.453542E-07    1.660841E-08    5.416834E-10
         1.256286E-11    2.111694E-13    2.486054E-15    1.240761E-17   -4.685512E-19   -2.412684E-20   -7.965275E-22   -2.154045E-23   -4.971861E-25   -1.004239E-26
        -1.850572E-28
  24    -3.082427E-30   -1.952543E-28   -1.135763E-26   -5.807783E-25   -2.540467E-23   -9.277624E-22   -2.706982E-20   -4.860642E-19    1.242810E-17    2.100513E-15
         1.496985E-13    7.273879E-12    2.473651E-10    5.661926E-09    7.849431E-08    4.822236E-07    7.849431E-08    5.661926E-09    2.473651E-10    7.273879E-12
         1.496983E-13    2.100408E-15    1.240761E-17   -4.880426E-19   -2.718572E-20   -9.326322E-22   -2.556238E-23   -5.849103E-25   -1.144869E-26   -1.970019E-28
        -3.112994E-30
  25    -3.738846E-32   -2.821629E-30   -1.966335E-28   -1.206566E-26   -6.317207E-25   -2.751901E-23   -9.761013E-22   -2.706593E-20   -4.668222E-19    7.511519E-18
         1.250867E-15    7.367728E-14    2.806442E-12    7.004882E-11    1.043544E-09    6.835282E-09    1.043544E-09    7.004882E-11    2.806441E-12    7.367712E-14
         1.250809E-15    7.497010E-18   -4.685512E-19   -2.718572E-20   -9.817858E-22   -2.771887E-23   -6.372043E-25   -1.218796E-26   -1.989325E-28   -2.859361E-30
        -3.795540E-32
  26    -3.186777E-34   -2.961395E-32   -2.552042E-30   -1.928889E-28   -1.232548E-26   -6.481609E-25   -2.751352E-23   -9.274632E-22   -2.403482E-20   -4.057153E-19
         1.764951E-18    5.022039E-16    2.402918E-14    6.715282E-13    1.076579E-11    7.471549E-11    1.076579E-11    6.715279E-13    2.402907E-14    5.021809E-16
         1.758096E-18   -4.067782E-19   -2.412684E-20   -9.326322E-22   -2.771887E-23   -6.542675E-25   -1.246726E-26   -1.955527E-28   -2.594003E-30   -3.019021E-32
        -3.259628E-34
  27    -1.789136E-36   -2.174707E-34   -2.448686E-32   -2.377382E-30   -1.907114E-28   -1.232224E-26   -6.314427E-25   -2.539132E-23   -7.928981E-22   -1.879152E-20
        -3.053350E-19   -1.280794E-18    1.209686E-16    4.740557E-15    8.658432E-14    6.452494E-13    8.658427E-14    4.740530E-15    1.209613E-16   -1.282981E-18
        -3.057845E-19   -1.884316E-20   -7.965275E-22   -2.556238E-23   -6.372043E-25   -1.246726E-26   -1.935339E-28   -2.421184E-30   -2.504809E-32   -2.236916E-34
        -1.853153E-36
  28    -5.631567E-39   -1.033381E-36   -1.695112E-34   -2.266981E-32   -2.376534E-30   -1.927757E-28   -1.205705E-26   -5.803483E-25   -2.142693E-23   -6.027878E-22
        -1.271795E-20   -1.907769E-19   -1.568127E-18    9.223656E-18    4.529007E-16    4.070322E-15    4.528980E-16    9.222203E-18   -1.568614E-18   -1.909049E-19
        -1.273845E-20   -6.047060E-22   -2.154045E-23   -5.849103E-25   -1.218796E-26   -1.955527E-28   -2.421184E-30   -2.322622E-32   -1.750517E-34   -1.080038E-36
        -6.001111E-39
  29    -4.341491E-42   -2.582190E-39   -8.154246E-37   -1.694181E-34   -2.446647E-32   -2.549543E-30   -1.964327E-28   -1.134664E-26   -4.942352E-25   -1.621991E-23
        -3.985010E-22   -7.248793E-21   -9.574216E-20   -8.550928E-19   -3.546034E-18    1.045994E-18   -3.546169E-18   -8.551709E-19   -9.576712E-20   -7.254327E-21
        -3.992334E-22   -1.627797E-23   -4.971861E-25   -1.144869E-26   -1.989325E-28   -2.594003E-30   -2.504809E-32   -1.750517E-34   -8.563220E-37   -2.817285E-39
        -5.625034E-42
  30     2.151350E-44   -1.411489E-43   -2.578530E-39   -1.031879E-36   -2.171498E-34   -2.957094E-32   -2.817774E-30   -1.950185E-28   -9.976206E-27   -3.791389E-25
        -1.066515E-23   -2.202162E-22   -3.321638E-21   -3.633541E-20   -2.559089E-19   -1.051891E-18   -2.559148E-19   -3.633881E-20   -3.322642E-21   -2.204083E-22
        -1.068695E-23   -3.806355E-25   -1.004239E-26   -1.970019E-28   -2.859361E-30   -3.019021E-32   -2.236916E-34   -1.080038E-36   -2.817285E-39   -9.192952E-43
         1.932975E-44
  31      0.00000        2.155390E-44   -4.300524E-42   -5.614080E-39   -1.784911E-36   -3.180325E-34   -3.732290E-32   -3.077909E-30   -1.837132E-28   -8.022303E-27
        -2.558310E-25   -5.903937E-24   -9.802546E-23   -1.174922E-21   -9.481811E-21   -4.824332E-20   -9.482037E-21   -1.175047E-21   -9.805963E-23   -5.909721E-24
        -2.564058E-25   -8.056954E-27   -1.850572E-28   -3.112994E-30   -3.795540E-32   -3.259628E-34   -1.853153E-36   -6.001111E-39   -5.625034E-42    1.932975E-44
          0.00000    

 CONCENTRATION WILL BE SAVED ON UNIT 1030 AT END OF TIME STEP   69, STRESS PERIOD    2


  MASS BUDGET FOR ENTIRE MODEL AT END OF TIME STEP   69, STRESS PERIOD   2
  ---------------------------------------------------------------------------------------------------

     CUMULATIVE MASS      M       RATES FOR THIS TIME STEP      M/T          PACKAGE NAME    
     ------------------                 ------------------------                     ----------------

           IN:                                      IN:
           ---                                      ---
     STORAGE-AQUEOUS =  7169072807.0990       STORAGE-AQUEOUS =      986768.4457     MST                              
                 WEL =  7884000000.0000                   WEL =           0.0000     SSM_WEL-1                        
                 CHD =           0.0000                   CHD =           0.0000     SSM_CHD-1                        

            TOTAL IN = 15053072807.0990              TOTAL IN =      986768.4457

          OUT:                                     OUT:
          ----                                     ----
     STORAGE-AQUEOUS =  7888714106.8223       STORAGE-AQUEOUS =          18.8935     MST                              
                 WEL =  7164358700.2768                   WEL =      986749.5522     SSM_WEL-1                        
                 CHD =       7.5562E-18                   CHD =           0.0000     SSM_CHD-1                        

           TOTAL OUT = 15053072807.0991             TOTAL OUT =      986768.4457

            IN - OUT =      -1.0681E-04              IN - OUT =      -2.8405E-08

 PERCENT DISCREPANCY =          -0.00     PERCENT DISCREPANCY =          -0.00




         TIME SUMMARY AT END OF TIME STEP   69 IN STRESS PERIOD    2
                    SECONDS     MINUTES      HOURS       DAYS        YEARS
                    -----------------------------------------------------------
   TIME STEP LENGTH 2.16991E+06  36165.      602.75      25.115     6.87602E-02
 STRESS PERIOD TIME 1.49724E+08 2.49539E+06  41590.      1732.9      4.7445    
         TOTAL TIME 2.28564E+08 3.80939E+06  63490.      2645.4      7.2427    


end timestep


start timestep kper="2" kstp="70" mode="normal"

 UBDSV1 SAVING  STORAGE-AQUEOUS ON UNIT   1029 AT TIME STEP     70, STRESS PERIOD      2
 UBDSV1 SAVING     FLOW-JA-FACE ON UNIT   1029 AT TIME STEP     70, STRESS PERIOD      2
 UBDSV06 SAVING  SOURCE-SINK MIX IN MODEL GWT_P06-MF6      PACKAGE GWT_P06-MF6     CONNECTED TO MODEL GWT_P06-MF6      PACKAGE SSM              ON UNIT   1029 AT TIME STEP     70, STRESS PERIOD      2
1
  CONCENTRATION IN LAYER   1 AT END OF TIME STEP  70 IN STRESS PERIOD    2
  ---------------------------------------------------------------------------

                1               2               3               4               5               6               7               8               9              10
               11              12              13              14              15              16              17              18              19              20
               21              22              23              24              25              26              27              28              29              30
               31
 ................................................................................................................................................................................................................................................................................................................................................................................................................................................................................................................
   1      0.00000        1.876525E-44   -6.759408E-42   -6.521193E-39   -1.976421E-36   -3.442638E-34   -3.980287E-32   -3.245025E-30   -1.918637E-28   -8.311429E-27
        -2.632871E-25   -6.043857E-24   -9.994696E-23   -1.193652E-21   -9.595294E-21   -4.853000E-20   -9.595090E-21   -1.193547E-21   -9.991995E-23   -6.039343E-24
        -2.628266E-25   -8.282584E-27   -1.906999E-28   -3.213508E-30   -3.921563E-32   -3.366828E-34   -1.909482E-36   -6.132807E-39   -5.402621E-42    2.109051E-44
          0.00000    
   2     1.876525E-44   -1.468656E-42   -3.085071E-39   -1.152846E-36   -2.361858E-34   -3.164890E-32   -2.980243E-30   -2.042754E-28   -1.036328E-26   -3.910215E-25
        -1.093231E-23   -2.246064E-22   -3.373402E-21   -3.671065E-20   -2.565422E-19   -1.042086E-18   -2.565370E-19   -3.670779E-20   -3.372606E-21   -2.244560E-22
        -1.091478E-23   -3.897689E-25   -1.030559E-26   -2.024806E-28   -2.941330E-30   -3.105213E-32   -2.297165E-34   -1.104116E-36   -2.838352E-39   -6.470905E-43
         2.113388E-44
   3    -6.759408E-42   -3.085071E-39   -9.145300E-37   -1.847913E-34   -2.624780E-32   -2.702791E-30   -2.062488E-28   -1.181534E-26   -5.108771E-25   -1.665667E-23
        -4.068607E-22   -7.358803E-21   -9.637824E-20   -8.429939E-19   -3.205218E-18    3.759841E-18   -3.205097E-18   -8.429279E-19   -9.635832E-20   -7.354456E-21
        -4.062689E-22   -1.660776E-23   -5.082842E-25   -1.172215E-26   -2.038869E-28   -2.659517E-30   -2.566679E-32   -1.790328E-34   -8.718372E-37   -2.834486E-39
        -5.358999E-42
   4    -6.521193E-39   -1.152846E-36   -1.847913E-34   -2.433418E-32   -2.522043E-30   -2.026989E-28   -1.257696E-26   -6.010427E-25   -2.204507E-23   -6.162847E-22
        -1.290752E-20   -1.907471E-19   -1.464934E-18    1.263945E-17    5.090215E-16    4.458665E-15    5.090238E-16    1.264069E-17   -1.464540E-18   -1.906460E-19
        -1.289087E-20   -6.146554E-22   -2.194430E-23   -5.968292E-25   -1.245177E-26   -1.999620E-28   -2.476874E-30   -2.375822E-32   -1.789356E-34   -1.102539E-36
        -6.114320E-39
   5    -1.976421E-36   -2.361858E-34   -2.624780E-32   -2.522043E-30   -2.005854E-28   -1.286376E-26   -6.547487E-25   -2.616208E-23   -8.117149E-22   -1.906564E-20
        -3.021656E-19   -8.487868E-19    1.390001E-16    5.206676E-15    9.352900E-14    6.899081E-13    9.352904E-14    5.206700E-15    1.390062E-16   -8.470311E-19
        -3.017971E-19   -1.902131E-20   -8.084522E-22   -2.600183E-23   -6.491556E-25   -1.271862E-26   -1.976854E-28   -2.475996E-30   -2.564561E-32   -2.293815E-34
        -1.905044E-36
   6    -3.442638E-34   -3.164890E-32   -2.702791E-30   -2.026989E-28   -1.286376E-26   -6.722618E-25   -2.836876E-23   -9.502916E-22   -2.437579E-20   -3.963781E-19
         2.900801E-18    5.622734E-16    2.616886E-14    7.213873E-13    1.145278E-11    7.882836E-11    1.145278E-11    7.213876E-13    2.616896E-14    5.622928E-16
         2.906479E-18   -3.954534E-19   -2.429172E-20   -9.453622E-22   -2.816566E-23   -6.660327E-25   -1.271529E-26   -1.998454E-28   -2.656934E-30   -3.100745E-32
        -3.360089E-34
   7    -3.980287E-32   -2.980243E-30   -2.062488E-28   -1.257696E-26   -6.547487E-25   -2.836876E-23   -1.000315E-21   -2.744036E-20   -4.506960E-19    9.603177E-18
         1.386669E-15    7.987872E-14    3.003920E-12    7.423141E-11    1.096258E-09    7.123494E-09    1.096258E-09    7.423141E-11    3.003921E-12    7.987888E-14
         1.386720E-15    9.615980E-18   -4.490840E-19   -2.732353E-20   -9.945604E-22   -2.816007E-23   -6.488717E-25   -1.244294E-26   -2.036802E-28   -2.937345E-30
        -3.914755E-32
   8    -3.245025E-30   -2.042754E-28   -1.181534E-26   -6.010427E-25   -2.616208E-23   -9.502916E-22   -2.744036E-20   -4.668734E-19    1.524487E-17    2.318433E-15
         1.618843E-13    7.766048E-12    2.613199E-10    5.924762E-09    8.143432E-08    4.963460E-07    8.143432E-08    5.924762E-09    2.613199E-10    7.766048E-12
         1.618846E-13    2.318529E-15    1.526438E-17   -4.648895E-19   -2.731961E-20   -9.450592E-22   -2.598826E-23   -5.963903E-25   -1.171090E-26   -2.022380E-28
        -3.208842E-30
   9    -1.918637E-28   -1.036328E-26   -5.108771E-25   -2.204507E-23   -8.117149E-22   -2.437579E-20   -4.506960E-19    1.524487E-17    2.740642E-15    2.280868E-13
         1.339217E-11    5.709494E-10    1.732369E-08    3.567905E-07    4.500700E-06    2.539800E-05    4.500700E-06    3.567905E-07    1.732369E-08    5.709495E-10
         1.339217E-11    2.280871E-13    2.740767E-15    1.526518E-17   -4.489621E-19   -2.428303E-20   -8.080418E-22   -2.192975E-23   -5.078690E-25   -1.029557E-26
        -1.904838E-28
  10    -8.311429E-27   -3.910215E-25   -1.665667E-23   -6.162847E-22   -1.906564E-20   -3.963781E-19    9.603177E-18    2.318433E-15    2.280868E-13    1.599701E-11
         8.304334E-10    3.146504E-08    8.454718E-07    1.543495E-05    1.745625E-04    8.946230E-04    1.745625E-04    1.543495E-05    8.454718E-07    3.146504E-08
         8.304334E-10    1.599701E-11    2.280870E-13    2.318536E-15    9.617562E-18   -3.953120E-19   -1.901359E-20   -6.143439E-22   -1.659773E-23   -3.894967E-25
        -8.276008E-27
  11    -2.632871E-25   -1.093231E-23   -4.068607E-22   -1.290752E-20   -3.021656E-19    2.900801E-18    1.386669E-15    1.618843E-13    1.339217E-11    8.304334E-10
         3.810824E-08    1.257596E-06    2.897014E-05    4.509492E-04    4.408194E-03    1.992594E-02    4.408194E-03    4.509492E-04    2.897014E-05    1.257596E-06
         3.810824E-08    8.304334E-10    1.339217E-11    1.618845E-13    1.386726E-15    2.907603E-18   -3.017146E-19   -1.288687E-20   -4.061199E-22   -1.091019E-23
        -2.627019E-25
  12    -6.043857E-24   -2.246064E-22   -7.358803E-21   -1.907471E-19   -8.487868E-19    5.622734E-16    7.987872E-14    7.766048E-12    5.709494E-10    3.146504E-08
         1.257596E-06    3.510308E-05    6.622132E-04    8.285407E-03    6.607099E-02    0.251548        6.607099E-02    8.285407E-03    6.622132E-04    3.510308E-05
         1.257596E-06    3.146504E-08    5.709495E-10    7.766048E-12    7.987888E-14    5.622962E-16   -8.465987E-19   -1.906186E-19   -7.353224E-21   -2.244120E-22
        -6.037989E-24
  13    -9.994696E-23   -3.373402E-21   -9.637824E-20   -1.464934E-18    1.390001E-16    2.616886E-14    3.003920E-12    2.613199E-10    1.732369E-08    8.454718E-07
         2.897014E-05    6.622132E-04    9.683762E-03    8.961999E-02    0.534357         1.59980        0.534357        8.961999E-02    9.683762E-03    6.622132E-04
         2.897014E-05    8.454718E-07    1.732369E-08    2.613199E-10    3.003921E-12    2.616897E-14    1.390074E-16   -1.464445E-18   -9.635313E-20   -3.372389E-21
        -9.991237E-23
  14    -1.193652E-21   -3.671065E-20   -8.429939E-19    1.263945E-17    5.206676E-15    7.213873E-13    7.423141E-11    5.924762E-09    3.567905E-07    1.543495E-05
         4.509492E-04    8.285407E-03    8.961999E-02    0.563767         2.25973         4.92518         2.25973        0.563767        8.961999E-02    8.285407E-03
         4.509492E-04    1.543495E-05    3.567905E-07    5.924762E-09    7.423141E-11    7.213876E-13    5.206703E-15    1.264091E-17   -8.429154E-19   -3.670722E-20
        -1.193526E-21
  15    -9.595294E-21   -2.565422E-19   -3.205218E-18    5.090215E-16    9.352900E-14    1.145278E-11    1.096258E-09    8.143432E-08    4.500700E-06    1.745625E-04
         4.408194E-03    6.607099E-02    0.534357         2.25973         6.15848         8.46633         6.15848         2.25973        0.534357        6.607099E-02
         4.408194E-03    1.745625E-04    4.500700E-06    8.143432E-08    1.096258E-09    1.145278E-11    9.352905E-14    5.090242E-16   -3.205082E-18   -2.565363E-19
        -9.595066E-21
  16    -4.853000E-20   -1.042086E-18    3.759841E-18    4.458665E-15    6.899081E-13    7.882836E-11    7.123494E-09    4.963460E-07    2.539800E-05    8.946230E-04
         1.992594E-02    0.251548         1.59980         4.92518         8.46633         11.0130         8.46633         4.92518         1.59980        0.251548    
         1.992594E-02    8.946230E-04    2.539800E-05    4.963460E-07    7.123494E-09    7.882836E-11    6.899081E-13    4.458665E-15    3.759840E-18   -1.042086E-18
        -4.853000E-20
  17    -9.595090E-21   -2.565370E-19   -3.205097E-18    5.090238E-16    9.352904E-14    1.145278E-11    1.096258E-09    8.143432E-08    4.500700E-06    1.745625E-04
         4.408194E-03    6.607099E-02    0.534357         2.25973         6.15848         8.46633         6.15848         2.25973        0.534357        6.607099E-02
         4.408194E-03    1.745625E-04    4.500700E-06    8.143432E-08    1.096258E-09    1.145278E-11    9.352900E-14    5.090215E-16   -3.205218E-18   -2.565422E-19
        -9.595293E-21
  18    -1.193547E-21   -3.670779E-20   -8.429279E-19    1.264069E-17    5.206700E-15    7.213876E-13    7.423141E-11    5.924762E-09    3.567905E-07    1.543495E-05
         4.509492E-04    8.285407E-03    8.961999E-02    0.563767         2.25973         4.92518         2.25973        0.563767        8.961999E-02    8.285407E-03
         4.509492E-04    1.543495E-05    3.567905E-07    5.924762E-09    7.423141E-11    7.213873E-13    5.206676E-15    1.263945E-17   -8.429939E-19   -3.671065E-20
        -1.193652E-21
  19    -9.991995E-23   -3.372606E-21   -9.635832E-20   -1.464540E-18    1.390062E-16    2.616896E-14    3.003921E-12    2.613199E-10    1.732369E-08    8.454718E-07
         2.897014E-05    6.622132E-04    9.683762E-03    8.961999E-02    0.534357         1.59980        0.534357        8.961999E-02    9.683762E-03    6.622132E-04
         2.897014E-05    8.454718E-07    1.732369E-08    2.613199E-10    3.003920E-12    2.616886E-14    1.390001E-16   -1.464934E-18   -9.637824E-20   -3.373402E-21
        -9.994695E-23
  20    -6.039343E-24   -2.244560E-22   -7.354456E-21   -1.906460E-19   -8.470311E-19    5.622928E-16    7.987888E-14    7.766048E-12    5.709495E-10    3.146504E-08
         1.257596E-06    3.510308E-05    6.622132E-04    8.285407E-03    6.607099E-02    0.251548        6.607099E-02    8.285407E-03    6.622132E-04    3.510308E-05
         1.257596E-06    3.146504E-08    5.709494E-10    7.766048E-12    7.987872E-14    5.622734E-16   -8.487868E-19   -1.907471E-19   -7.358803E-21   -2.246064E-22
        -6.043857E-24
  21    -2.628266E-25   -1.091478E-23   -4.062689E-22   -1.289087E-20   -3.017971E-19    2.906479E-18    1.386720E-15    1.618846E-13    1.339217E-11    8.304334E-10
         3.810824E-08    1.257596E-06    2.897014E-05    4.509492E-04    4.408194E-03    1.992594E-02    4.408194E-03    4.509492E-04    2.897014E-05    1.257596E-06
         3.810824E-08    8.304334E-10    1.339217E-11    1.618843E-13    1.386669E-15    2.900801E-18   -3.021656E-19   -1.290752E-20   -4.068607E-22   -1.093231E-23
        -2.632870E-25
  22    -8.282584E-27   -3.897689E-25   -1.660776E-23   -6.146554E-22   -1.902131E-20   -3.954534E-19    9.615980E-18    2.318529E-15    2.280871E-13    1.599701E-11
         8.304334E-10    3.146504E-08    8.454718E-07    1.543495E-05    1.745625E-04    8.946230E-04    1.745625E-04    1.543495E-05    8.454718E-07    3.146504E-08
         8.304334E-10    1.599701E-11    2.280868E-13    2.318433E-15    9.603177E-18   -3.963781E-19   -1.906564E-20   -6.162847E-22   -1.665667E-23   -3.910215E-25
        -8.311429E-27
  23    -1.906999E-28   -1.030559E-26   -5.082842E-25   -2.194430E-23   -8.084522E-22   -2.429172E-20   -4.490840E-19    1.526438E-17    2.740767E-15    2.280870E-13
         1.339217E-11    5.709495E-10    1.732369E-08    3.567905E-07    4.500700E-06    2.539800E-05    4.500700E-06    3.567905E-07    1.732369E-08    5.709494E-10
         1.339217E-11    2.280868E-13    2.740642E-15    1.524487E-17   -4.506960E-19   -2.437579E-20   -8.117149E-22   -2.204507E-23   -5.108771E-25   -1.036328E-26
        -1.918637E-28
  24    -3.213508E-30   -2.024806E-28   -1.172215E-26   -5.968292E-25   -2.600183E-23   -9.453622E-22   -2.732353E-20   -4.648895E-19    1.526518E-17    2.318536E-15
         1.618845E-13    7.766048E-12    2.613199E-10    5.924762E-09    8.143432E-08    4.963460E-07    8.143432E-08    5.924762E-09    2.613199E-10    7.766048E-12
         1.618843E-13    2.318433E-15    1.524487E-17   -4.668734E-19   -2.744036E-20   -9.502916E-22   -2.616208E-23   -6.010427E-25   -1.181534E-26   -2.042754E-28
        -3.245025E-30
  25    -3.921563E-32   -2.941330E-30   -2.038869E-28   -1.245177E-26   -6.491556E-25   -2.816566E-23   -9.945604E-22   -2.731961E-20   -4.489621E-19    9.617562E-18
         1.386726E-15    7.987888E-14    3.003921E-12    7.423141E-11    1.096258E-09    7.123494E-09    1.096258E-09    7.423141E-11    3.003920E-12    7.987872E-14
         1.386669E-15    9.603177E-18   -4.506960E-19   -2.744036E-20   -1.000315E-21   -2.836876E-23   -6.547487E-25   -1.257696E-26   -2.062488E-28   -2.980243E-30
        -3.980287E-32
  26    -3.366828E-34   -3.105213E-32   -2.659517E-30   -1.999620E-28   -1.271862E-26   -6.660327E-25   -2.816007E-23   -9.450592E-22   -2.428303E-20   -3.953120E-19
         2.907603E-18    5.622962E-16    2.616897E-14    7.213876E-13    1.145278E-11    7.882836E-11    1.145278E-11    7.213873E-13    2.616886E-14    5.622734E-16
         2.900801E-18   -3.963781E-19   -2.437579E-20   -9.502916E-22   -2.836876E-23   -6.722618E-25   -1.286376E-26   -2.026989E-28   -2.702791E-30   -3.164890E-32
        -3.442638E-34
  27    -1.909482E-36   -2.297165E-34   -2.566679E-32   -2.476874E-30   -1.976854E-28   -1.271529E-26   -6.488717E-25   -2.598826E-23   -8.080418E-22   -1.901359E-20
        -3.017146E-19   -8.465987E-19    1.390074E-16    5.206703E-15    9.352905E-14    6.899081E-13    9.352900E-14    5.206676E-15    1.390001E-16   -8.487868E-19
        -3.021656E-19   -1.906564E-20   -8.117149E-22   -2.616208E-23   -6.547487E-25   -1.286376E-26   -2.005854E-28   -2.522043E-30   -2.624780E-32   -2.361858E-34
        -1.976421E-36
  28    -6.132807E-39   -1.104116E-36   -1.790328E-34   -2.375822E-32   -2.475996E-30   -1.998454E-28   -1.244294E-26   -5.963903E-25   -2.192975E-23   -6.143439E-22
        -1.288687E-20   -1.906186E-19   -1.464445E-18    1.264091E-17    5.090242E-16    4.458665E-15    5.090215E-16    1.263945E-17   -1.464934E-18   -1.907471E-19
        -1.290752E-20   -6.162847E-22   -2.204507E-23   -6.010427E-25   -1.257696E-26   -2.026989E-28   -2.522043E-30   -2.433418E-32   -1.847913E-34   -1.152846E-36
        -6.521193E-39
  29    -5.402621E-42   -2.838352E-39   -8.718372E-37   -1.789356E-34   -2.564561E-32   -2.656934E-30   -2.036802E-28   -1.171090E-26   -5.078690E-25   -1.659773E-23
        -4.061199E-22   -7.353224E-21   -9.635313E-20   -8.429154E-19   -3.205082E-18    3.759840E-18   -3.205218E-18   -8.429939E-19   -9.637824E-20   -7.358803E-21
        -4.068607E-22   -1.665667E-23   -5.108771E-25   -1.181534E-26   -2.062488E-28   -2.702791E-30   -2.624780E-32   -1.847913E-34   -9.145300E-37   -3.085071E-39
        -6.759407E-42
  30     2.109051E-44   -6.470905E-43   -2.834486E-39   -1.102539E-36   -2.293815E-34   -3.100745E-32   -2.937345E-30   -2.022380E-28   -1.029557E-26   -3.894967E-25
        -1.091019E-23   -2.244120E-22   -3.372389E-21   -3.670722E-20   -2.565363E-19   -1.042086E-18   -2.565422E-19   -3.671065E-20   -3.373402E-21   -2.246064E-22
        -1.093231E-23   -3.910215E-25   -1.036328E-26   -2.042754E-28   -2.980243E-30   -3.164890E-32   -2.361858E-34   -1.152846E-36   -3.085071E-39   -1.468655E-42
         1.876525E-44
  31      0.00000        2.113388E-44   -5.358999E-42   -6.114320E-39   -1.905044E-36   -3.360089E-34   -3.914755E-32   -3.208842E-30   -1.904838E-28   -8.276008E-27
        -2.627019E-25   -6.037989E-24   -9.991237E-23   -1.193526E-21   -9.595066E-21   -4.853000E-20   -9.595293E-21   -1.193652E-21   -9.994695E-23   -6.043857E-24
        -2.632870E-25   -8.311429E-27   -1.918637E-28   -3.245025E-30   -3.980287E-32   -3.442638E-34   -1.976421E-36   -6.521193E-39   -6.759407E-42    1.876525E-44
          0.00000    

 CONCENTRATION WILL BE SAVED ON UNIT 1030 AT END OF TIME STEP   70, STRESS PERIOD    2


  MASS BUDGET FOR ENTIRE MODEL AT END OF TIME STEP   70, STRESS PERIOD   2
  ---------------------------------------------------------------------------------------------------

     CUMULATIVE MASS      M       RATES FOR THIS TIME STEP      M/T          PACKAGE NAME    
     ------------------                 ------------------------                     ----------------

           IN:                                      IN:
           ---                                      ---
     STORAGE-AQUEOUS =  7192970474.4083       STORAGE-AQUEOUS =      951541.8216     MST                              
                 WEL =  7884000000.0000                   WEL =           0.0000     SSM_WEL-1                        
                 CHD =           0.0000                   CHD =           0.0000     SSM_CHD-1                        

            TOTAL IN = 15076970474.4083              TOTAL IN =      951541.8216

          OUT:                                     OUT:
          ----                                     ----
     STORAGE-AQUEOUS =  7888714552.8781       STORAGE-AQUEOUS =          17.7608     MST                              
                 WEL =  7188255921.5303                   WEL =      951524.0609     SSM_WEL-1                        
                 CHD =       7.5562E-18                   CHD =           0.0000     SSM_CHD-1                        

           TOTAL OUT = 15076970474.4084             TOTAL OUT =      951541.8216

            IN - OUT =      -1.0872E-04              IN - OUT =      -2.7125E-08

 PERCENT DISCREPANCY =          -0.00     PERCENT DISCREPANCY =          -0.00




         TIME SUMMARY AT END OF TIME STEP   70 IN STRESS PERIOD    2
                    SECONDS     MINUTES      HOURS       DAYS        YEARS
                    -----------------------------------------------------------
   TIME STEP LENGTH 2.16991E+06  36165.      602.75      25.115     6.87602E-02
 STRESS PERIOD TIME 1.51894E+08 2.53156E+06  42193.      1758.0      4.8132    
         TOTAL TIME 2.30734E+08 3.84556E+06  64093.      2670.5      7.3115    


end timestep


start timestep kper="2" kstp="71" mode="normal"

 UBDSV1 SAVING  STORAGE-AQUEOUS ON UNIT   1029 AT TIME STEP     71, STRESS PERIOD      2
 UBDSV1 SAVING     FLOW-JA-FACE ON UNIT   1029 AT TIME STEP     71, STRESS PERIOD      2
 UBDSV06 SAVING  SOURCE-SINK MIX IN MODEL GWT_P06-MF6      PACKAGE GWT_P06-MF6     CONNECTED TO MODEL GWT_P06-MF6      PACKAGE SSM              ON UNIT   1029 AT TIME STEP     71, STRESS PERIOD      2
1
  CONCENTRATION IN LAYER   1 AT END OF TIME STEP  71 IN STRESS PERIOD    2
  ---------------------------------------------------------------------------

                1               2               3               4               5               6               7               8               9              10
               11              12              13              14              15              16              17              18              19              20
               21              22              23              24              25              26              27              28              29              30
               31
 ................................................................................................................................................................................................................................................................................................................................................................................................................................................................................................................
   1      0.00000        1.808021E-44   -7.991922E-42   -7.075418E-39   -2.106492E-36   -3.634391E-34   -4.172719E-32   -3.381818E-30   -1.988808E-28   -8.572568E-27
        -2.703188E-25   -6.180405E-24   -1.018605E-22   -1.212403E-21   -9.708160E-21   -4.880799E-20   -9.707954E-21   -1.212297E-21   -1.018332E-22   -6.175825E-24
        -2.698501E-25   -8.543088E-27   -1.976863E-28   -3.349327E-30   -4.111904E-32   -3.555516E-34   -2.036514E-36   -6.667348E-39   -6.558229E-42    2.055494E-44
          0.00000    
   2     1.808021E-44   -2.068295E-42   -3.370611E-39   -1.229648E-36   -2.492717E-34   -3.316794E-32   -3.105484E-30   -2.117755E-28   -1.069266E-26   -4.016368E-25
        -1.118205E-23   -2.288580E-22   -3.424300E-21   -3.707157E-20   -2.569344E-19   -1.030599E-18   -2.569291E-19   -3.706869E-20   -3.423497E-21   -2.287059E-22
        -1.116426E-23   -4.003609E-25   -1.063366E-26   -2.099323E-28   -3.065359E-30   -3.255003E-32   -2.425455E-34   -1.178765E-36   -3.111758E-39   -1.201180E-42
         2.060147E-44
   3    -7.991922E-42   -3.370611E-39   -9.759238E-37   -1.949893E-34   -2.749680E-32   -2.815486E-30   -2.137929E-28   -1.219177E-26   -5.248733E-25   -1.704210E-23
        -4.145733E-22   -7.462544E-21   -9.690917E-20   -8.284625E-19   -2.828182E-18    6.692248E-18   -2.828060E-18   -8.283962E-19   -9.688914E-20   -7.458162E-21
        -4.139747E-22   -1.699245E-23   -5.222306E-25   -1.209641E-26   -2.113668E-28   -2.770864E-30   -2.689539E-32   -1.890052E-34   -9.313656E-37   -3.107676E-39
        -6.511804E-42
   4    -7.075418E-39   -1.229648E-36   -1.949893E-34   -2.548750E-32   -2.626509E-30   -2.100670E-28   -1.297632E-26   -6.175363E-25   -2.255859E-23   -6.279691E-22
        -1.307264E-20   -1.902492E-19   -1.348106E-18    1.635642E-17    5.693235E-16    4.871963E-15    5.693259E-16    1.635766E-17   -1.347710E-18   -1.901476E-19
        -1.305586E-20   -6.263208E-22   -2.245625E-23   -6.132401E-25   -1.284819E-26   -2.072554E-28   -2.579935E-30   -2.489140E-32   -1.889038E-34   -1.177109E-36
        -6.647811E-39
   5    -2.106492E-36   -2.492717E-34   -2.749680E-32   -2.626509E-30   -2.078556E-28   -1.327082E-26   -6.726861E-25   -2.677224E-23   -8.270066E-22   -1.927759E-20
        -2.975956E-19   -3.673000E-19    1.585297E-16    5.705429E-15    1.008902E-13    7.368482E-13    1.008903E-13    5.705452E-15    1.585358E-16   -3.655430E-19
        -2.972258E-19   -1.923292E-20   -8.237050E-22   -2.660943E-23   -6.669819E-25   -1.312225E-26   -2.048762E-28   -2.579028E-30   -2.687340E-32   -2.421958E-34
        -2.031853E-36
   6    -3.634391E-34   -3.316794E-32   -2.815486E-30   -2.100670E-28   -1.327082E-26   -6.906591E-25   -2.902989E-23   -9.680402E-22   -2.460577E-20   -3.840713E-19
         4.152767E-18    6.271124E-16    2.845089E-14    7.740395E-13    1.217175E-11    8.309621E-11    1.217175E-11    7.740399E-13    2.845099E-14    6.271317E-16
         4.158403E-18   -3.831438E-19   -2.452104E-20   -9.630509E-22   -2.882351E-23   -6.843056E-25   -1.311884E-26   -2.071354E-28   -2.768194E-30   -3.250363E-32
        -3.548481E-34
   7    -4.172719E-32   -3.105484E-30   -2.137929E-28   -1.297632E-26   -6.726861E-25   -2.902989E-23   -1.018925E-21   -2.766992E-20   -4.299822E-19    1.190451E-17
         1.532930E-15    8.647580E-14    3.211784E-12    7.859057E-11    1.150688E-09    7.418465E-09    1.150688E-09    7.859057E-11    3.211784E-12    8.647596E-14
         1.532979E-15    1.191721E-17   -4.283657E-19   -2.755216E-20   -1.013100E-21   -2.881783E-23   -6.666921E-25   -1.283915E-26   -2.111541E-28   -3.061241E-30
        -4.104835E-32
   8    -3.381818E-30   -2.117755E-28   -1.219177E-26   -6.175363E-25   -2.677224E-23   -9.680402E-22   -2.766992E-20   -4.424390E-19    1.834117E-17    2.552829E-15
         1.748243E-13    8.282755E-12    2.758110E-10    6.194857E-09    8.442574E-08    5.105762E-07    8.442574E-08    6.194857E-09    2.758110E-10    8.282755E-12
         1.748245E-13    2.552924E-15    1.836051E-17   -4.404498E-19   -2.754821E-20   -9.627442E-22   -2.659564E-23   -6.127922E-25   -1.208488E-26   -2.096828E-28
        -3.344507E-30
   9    -1.988808E-28   -1.069266E-26   -5.248733E-25   -2.255859E-23   -8.270066E-22   -2.460577E-20   -4.299822E-19    1.834117E-17    3.014226E-15    2.460343E-13
         1.426136E-11    6.012553E-10    1.805565E-08    3.683586E-07    4.607358E-06    2.580056E-05    4.607358E-06    3.683586E-07    1.805565E-08    6.012553E-10
         1.426135E-11    2.460345E-13    3.014349E-15    1.836130E-17   -4.282435E-19   -2.451229E-20   -8.232895E-22   -2.244146E-23   -5.218071E-25   -1.062341E-26
        -1.974644E-28
  10    -8.572568E-27   -4.016368E-25   -1.704210E-23   -6.279691E-22   -1.927759E-20   -3.840713E-19    1.190451E-17    2.552829E-15    2.460343E-13    1.702646E-11
         8.734675E-10    3.272411E-08    8.699972E-07    1.573034E-05    1.764119E-04    8.973727E-04    1.764119E-04    1.573034E-05    8.699972E-07    3.272411E-08
         8.734676E-10    1.702645E-11    2.460345E-13    2.552931E-15    1.191877E-17   -3.830020E-19   -1.922514E-20   -6.260057E-22   -1.698226E-23   -4.000835E-25
        -8.536363E-27
  11    -2.703188E-25   -1.118205E-23   -4.145733E-22   -1.307264E-20   -2.975956E-19    4.152767E-18    1.532930E-15    1.748243E-13    1.426136E-11    8.734675E-10
         3.960311E-08    1.291654E-06    2.942751E-05    4.536006E-04    4.397787E-03    1.973952E-02    4.397787E-03    4.536006E-04    2.942751E-05    1.291654E-06
         3.960311E-08    8.734676E-10    1.426135E-11    1.748245E-13    1.532986E-15    4.159517E-18   -2.971431E-19   -1.305183E-20   -4.138240E-22   -1.115960E-23
        -2.697231E-25
  12    -6.180405E-24   -2.288580E-22   -7.462544E-21   -1.902492E-19   -3.673000E-19    6.271124E-16    8.647580E-14    8.282755E-12    6.012553E-10    3.272411E-08
         1.291654E-06    3.561336E-05    6.641516E-04    8.227816E-03    6.510448E-02    0.246341        6.510448E-02    8.227816E-03    6.641516E-04    3.561336E-05
         1.291654E-06    3.272411E-08    6.012553E-10    8.282754E-12    8.647596E-14    6.271351E-16   -3.651113E-19   -1.901201E-19   -7.456921E-21   -2.286615E-22
        -6.174451E-24
  13    -1.018605E-22   -3.424300E-21   -9.690917E-20   -1.348106E-18    1.585297E-16    2.845089E-14    3.211784E-12    2.758110E-10    1.805565E-08    8.699972E-07
         2.942751E-05    6.641516E-04    9.597975E-03    8.796657E-02    0.520998         1.55274        0.520998        8.796657E-02    9.597975E-03    6.641516E-04
         2.942751E-05    8.699972E-07    1.805565E-08    2.758110E-10    3.211785E-12    2.845100E-14    1.585369E-16   -1.347616E-18   -9.688392E-20   -3.423279E-21
        -1.018255E-22
  14    -1.212403E-21   -3.707157E-20   -8.284625E-19    1.635642E-17    5.705429E-15    7.740395E-13    7.859057E-11    6.194857E-09    3.683586E-07    1.573034E-05
         4.536006E-04    8.227816E-03    8.796657E-02    0.548509         2.18808         4.75842         2.18808        0.548509        8.796657E-02    8.227816E-03
         4.536006E-04    1.573034E-05    3.683586E-07    6.194857E-09    7.859057E-11    7.740399E-13    5.705456E-15    1.635787E-17   -8.283837E-19   -3.706812E-20
        -1.212275E-21
  15    -9.708160E-21   -2.569344E-19   -2.828182E-18    5.693235E-16    1.008902E-13    1.217175E-11    1.150688E-09    8.442574E-08    4.607358E-06    1.764119E-04
         4.397787E-03    6.510448E-02    0.520998         2.18808         5.94756         8.16913         5.94756         2.18808        0.520998        6.510448E-02
         4.397787E-03    1.764119E-04    4.607358E-06    8.442574E-08    1.150688E-09    1.217175E-11    1.008903E-13    5.693262E-16   -2.828045E-18   -2.569285E-19
        -9.707930E-21
  16    -4.880799E-20   -1.030599E-18    6.692248E-18    4.871963E-15    7.368482E-13    8.309621E-11    7.418465E-09    5.105762E-07    2.580056E-05    8.973727E-04
         1.973952E-02    0.246341         1.55274         4.75842         8.16913         10.6207         8.16913         4.75842         1.55274        0.246341    
         1.973952E-02    8.973727E-04    2.580056E-05    5.105762E-07    7.418465E-09    8.309621E-11    7.368482E-13    4.871963E-15    6.692247E-18   -1.030599E-18
        -4.880799E-20
  17    -9.707954E-21   -2.569291E-19   -2.828060E-18    5.693259E-16    1.008903E-13    1.217175E-11    1.150688E-09    8.442574E-08    4.607358E-06    1.764119E-04
         4.397787E-03    6.510448E-02    0.520998         2.18808         5.94756         8.16913         5.94756         2.18808        0.520998        6.510448E-02
         4.397787E-03    1.764119E-04    4.607358E-06    8.442574E-08    1.150688E-09    1.217175E-11    1.008902E-13    5.693235E-16   -2.828182E-18   -2.569344E-19
        -9.708159E-21
  18    -1.212297E-21   -3.706869E-20   -8.283962E-19    1.635766E-17    5.705452E-15    7.740399E-13    7.859057E-11    6.194857E-09    3.683586E-07    1.573034E-05
         4.536006E-04    8.227816E-03    8.796657E-02    0.548509         2.18808         4.75842         2.18808        0.548509        8.796657E-02    8.227816E-03
         4.536006E-04    1.573034E-05    3.683586E-07    6.194857E-09    7.859057E-11    7.740395E-13    5.705429E-15    1.635642E-17   -8.284625E-19   -3.707156E-20
        -1.212403E-21
  19    -1.018332E-22   -3.423497E-21   -9.688914E-20   -1.347710E-18    1.585358E-16    2.845099E-14    3.211784E-12    2.758110E-10    1.805565E-08    8.699972E-07
         2.942751E-05    6.641516E-04    9.597975E-03    8.796657E-02    0.520998         1.55274        0.520998        8.796657E-02    9.597975E-03    6.641516E-04
         2.942751E-05    8.699972E-07    1.805565E-08    2.758110E-10    3.211784E-12    2.845089E-14    1.585297E-16   -1.348106E-18   -9.690917E-20   -3.424300E-21
        -1.018605E-22
  20    -6.175825E-24   -2.287059E-22   -7.458162E-21   -1.901476E-19   -3.655430E-19    6.271317E-16    8.647596E-14    8.282755E-12    6.012553E-10    3.272411E-08
         1.291654E-06    3.561336E-05    6.641516E-04    8.227816E-03    6.510448E-02    0.246341        6.510448E-02    8.227816E-03    6.641516E-04    3.561336E-05
         1.291654E-06    3.272411E-08    6.012553E-10    8.282755E-12    8.647580E-14    6.271124E-16   -3.672999E-19   -1.902492E-19   -7.462544E-21   -2.288580E-22
        -6.180405E-24
  21    -2.698501E-25   -1.116426E-23   -4.139747E-22   -1.305586E-20   -2.972258E-19    4.158403E-18    1.532979E-15    1.748245E-13    1.426135E-11    8.734676E-10
         3.960311E-08    1.291654E-06    2.942751E-05    4.536006E-04    4.397787E-03    1.973952E-02    4.397787E-03    4.536006E-04    2.942751E-05    1.291654E-06
         3.960311E-08    8.734675E-10    1.426136E-11    1.748243E-13    1.532930E-15    4.152767E-18   -2.975956E-19   -1.307264E-20   -4.145733E-22   -1.118205E-23
        -2.703188E-25
  22    -8.543088E-27   -4.003609E-25   -1.699245E-23   -6.263208E-22   -1.923292E-20   -3.831438E-19    1.191721E-17    2.552924E-15    2.460345E-13    1.702645E-11
         8.734676E-10    3.272411E-08    8.699972E-07    1.573034E-05    1.764119E-04    8.973727E-04    1.764119E-04    1.573034E-05    8.699972E-07    3.272411E-08
         8.734675E-10    1.702646E-11    2.460343E-13    2.552829E-15    1.190451E-17   -3.840713E-19   -1.927759E-20   -6.279691E-22   -1.704210E-23   -4.016368E-25
        -8.572568E-27
  23    -1.976863E-28   -1.063366E-26   -5.222306E-25   -2.245625E-23   -8.237050E-22   -2.452104E-20   -4.283657E-19    1.836051E-17    3.014349E-15    2.460345E-13
         1.426135E-11    6.012553E-10    1.805565E-08    3.683586E-07    4.607358E-06    2.580056E-05    4.607358E-06    3.683586E-07    1.805565E-08    6.012553E-10
         1.426136E-11    2.460343E-13    3.014226E-15    1.834117E-17   -4.299822E-19   -2.460577E-20   -8.270066E-22   -2.255859E-23   -5.248733E-25   -1.069266E-26
        -1.988808E-28
  24    -3.349327E-30   -2.099323E-28   -1.209641E-26   -6.132401E-25   -2.660943E-23   -9.630509E-22   -2.755216E-20   -4.404498E-19    1.836130E-17    2.552931E-15
         1.748245E-13    8.282754E-12    2.758110E-10    6.194857E-09    8.442574E-08    5.105762E-07    8.442574E-08    6.194857E-09    2.758110E-10    8.282755E-12
         1.748243E-13    2.552829E-15    1.834117E-17   -4.424390E-19   -2.766992E-20   -9.680402E-22   -2.677224E-23   -6.175363E-25   -1.219177E-26   -2.117754E-28
        -3.381818E-30
  25    -4.111904E-32   -3.065359E-30   -2.113668E-28   -1.284819E-26   -6.669819E-25   -2.882351E-23   -1.013100E-21   -2.754821E-20   -4.282435E-19    1.191877E-17
         1.532986E-15    8.647596E-14    3.211785E-12    7.859057E-11    1.150688E-09    7.418465E-09    1.150688E-09    7.859057E-11    3.211784E-12    8.647580E-14
         1.532930E-15    1.190451E-17   -4.299822E-19   -2.766992E-20   -1.018925E-21   -2.902989E-23   -6.726861E-25   -1.297632E-26   -2.137929E-28   -3.105484E-30
        -4.172719E-32
  26    -3.555516E-34   -3.255003E-32   -2.770864E-30   -2.072554E-28   -1.312225E-26   -6.843056E-25   -2.881783E-23   -9.627442E-22   -2.451229E-20   -3.830020E-19
         4.159517E-18    6.271351E-16    2.845100E-14    7.740399E-13    1.217175E-11    8.309621E-11    1.217175E-11    7.740395E-13    2.845089E-14    6.271124E-16
         4.152767E-18   -3.840713E-19   -2.460577E-20   -9.680402E-22   -2.902989E-23   -6.906591E-25   -1.327082E-26   -2.100670E-28   -2.815486E-30   -3.316794E-32
        -3.634391E-34
  27    -2.036514E-36   -2.425455E-34   -2.689539E-32   -2.579935E-30   -2.048762E-28   -1.311884E-26   -6.666921E-25   -2.659564E-23   -8.232895E-22   -1.922514E-20
        -2.971431E-19   -3.651113E-19    1.585369E-16    5.705456E-15    1.008903E-13    7.368482E-13    1.008902E-13    5.705429E-15    1.585297E-16   -3.672999E-19
        -2.975956E-19   -1.927759E-20   -8.270066E-22   -2.677224E-23   -6.726861E-25   -1.327082E-26   -2.078556E-28   -2.626509E-30   -2.749680E-32   -2.492717E-34
        -2.106492E-36
  28    -6.667348E-39   -1.178765E-36   -1.890052E-34   -2.489140E-32   -2.579028E-30   -2.071354E-28   -1.283915E-26   -6.127922E-25   -2.244146E-23   -6.260057E-22
        -1.305183E-20   -1.901201E-19   -1.347616E-18    1.635787E-17    5.693262E-16    4.871963E-15    5.693235E-16    1.635642E-17   -1.348106E-18   -1.902492E-19
        -1.307264E-20   -6.279691E-22   -2.255859E-23   -6.175363E-25   -1.297632E-26   -2.100670E-28   -2.626509E-30   -2.548750E-32   -1.949893E-34   -1.229648E-36
        -7.075418E-39
  29    -6.558229E-42   -3.111758E-39   -9.313656E-37   -1.889038E-34   -2.687340E-32   -2.768194E-30   -2.111541E-28   -1.208488E-26   -5.218071E-25   -1.698226E-23
        -4.138240E-22   -7.456921E-21   -9.688392E-20   -8.283837E-19   -2.828045E-18    6.692247E-18   -2.828182E-18   -8.284625E-19   -9.690917E-20   -7.462544E-21
        -4.145733E-22   -1.704210E-23   -5.248733E-25   -1.219177E-26   -2.137929E-28   -2.815486E-30   -2.749680E-32   -1.949893E-34   -9.759238E-37   -3.370611E-39
        -7.991922E-42
  30     2.055494E-44   -1.201180E-42   -3.107676E-39   -1.177109E-36   -2.421958E-34   -3.250363E-32   -3.061241E-30   -2.096828E-28   -1.062341E-26   -4.000835E-25
        -1.115960E-23   -2.286615E-22   -3.423279E-21   -3.706812E-20   -2.569285E-19   -1.030599E-18   -2.569344E-19   -3.707156E-20   -3.424300E-21   -2.288580E-22
        -1.118205E-23   -4.016368E-25   -1.069266E-26   -2.117754E-28   -3.105484E-30   -3.316794E-32   -2.492717E-34   -1.229648E-36   -3.370611E-39   -2.068295E-42
         1.808021E-44
  31      0.00000        2.060147E-44   -6.511804E-42   -6.647811E-39   -2.031853E-36   -3.548481E-34   -4.104835E-32   -3.344507E-30   -1.974644E-28   -8.536363E-27
        -2.697231E-25   -6.174451E-24   -1.018255E-22   -1.212275E-21   -9.707930E-21   -4.880799E-20   -9.708159E-21   -1.212403E-21   -1.018605E-22   -6.180405E-24
        -2.703188E-25   -8.572568E-27   -1.988808E-28   -3.381818E-30   -4.172719E-32   -3.634391E-34   -2.106492E-36   -7.075418E-39   -7.991922E-42    1.808021E-44
          0.00000    

 CONCENTRATION WILL BE SAVED ON UNIT 1030 AT END OF TIME STEP   71, STRESS PERIOD    2


  MASS BUDGET FOR ENTIRE MODEL AT END OF TIME STEP   71, STRESS PERIOD   2
  ---------------------------------------------------------------------------------------------------

     CUMULATIVE MASS      M       RATES FOR THIS TIME STEP      M/T          PACKAGE NAME    
     ------------------                 ------------------------                     ----------------

           IN:                                      IN:
           ---                                      ---
     STORAGE-AQUEOUS =  7216016755.7671       STORAGE-AQUEOUS =      917641.8879     MST                              
                 WEL =  7884000000.0000                   WEL =           0.0000     SSM_WEL-1                        
                 CHD =           0.0000                   CHD =           0.0000     SSM_CHD-1                        

            TOTAL IN = 15100016755.7671              TOTAL IN =      917641.8879

          OUT:                                     OUT:
          ----                                     ----
     STORAGE-AQUEOUS =  7888714970.7997       STORAGE-AQUEOUS =          16.6405     MST                              
                 WEL =  7211301784.9676                   WEL =      917625.2474     SSM_WEL-1                        
                 CHD =       7.5562E-18                   CHD =           0.0000     SSM_CHD-1                        

           TOTAL OUT = 15100016755.7672             TOTAL OUT =      917641.8879

            IN - OUT =      -1.0872E-04              IN - OUT =      -2.7358E-08

 PERCENT DISCREPANCY =          -0.00     PERCENT DISCREPANCY =          -0.00




         TIME SUMMARY AT END OF TIME STEP   71 IN STRESS PERIOD    2
                    SECONDS     MINUTES      HOURS       DAYS        YEARS
                    -----------------------------------------------------------
   TIME STEP LENGTH 2.16991E+06  36165.      602.75      25.115     6.87602E-02
 STRESS PERIOD TIME 1.54063E+08 2.56772E+06  42795.      1783.1      4.8820    
         TOTAL TIME 2.32903E+08 3.88172E+06  64695.      2695.6      7.3803    


end timestep


start timestep kper="2" kstp="72" mode="normal"

 UBDSV1 SAVING  STORAGE-AQUEOUS ON UNIT   1029 AT TIME STEP     72, STRESS PERIOD      2
 UBDSV1 SAVING     FLOW-JA-FACE ON UNIT   1029 AT TIME STEP     72, STRESS PERIOD      2
 UBDSV06 SAVING  SOURCE-SINK MIX IN MODEL GWT_P06-MF6      PACKAGE GWT_P06-MF6     CONNECTED TO MODEL GWT_P06-MF6      PACKAGE SSM              ON UNIT   1029 AT TIME STEP     72, STRESS PERIOD      2
1
  CONCENTRATION IN LAYER   1 AT END OF TIME STEP  72 IN STRESS PERIOD    2
  ---------------------------------------------------------------------------

                1               2               3               4               5               6               7               8               9              10
               11              12              13              14              15              16              17              18              19              20
               21              22              23              24              25              26              27              28              29              30
               31
 ................................................................................................................................................................................................................................................................................................................................................................................................................................................................................................................
   1      0.00000        1.726429E-44   -9.328941E-42   -7.665643E-39   -2.243684E-36   -3.835241E-34   -4.373108E-32   -3.523517E-30   -2.061140E-28   -8.840510E-27
        -2.775036E-25   -6.319392E-24   -1.038002E-22   -1.231291E-21   -9.820481E-21   -4.907628E-20   -9.820274E-21   -1.231184E-21   -1.037726E-22   -6.314745E-24
        -2.770265E-25   -8.810384E-27   -2.048881E-28   -3.490026E-30   -4.310138E-32   -3.753195E-34   -2.170547E-36   -7.237013E-39   -7.814519E-42    1.989683E-44
          0.00000    
   2     1.726429E-44   -2.721492E-42   -3.674863E-39   -1.310632E-36   -2.629736E-34   -3.474946E-32   -3.235219E-30   -2.195078E-28   -1.103072E-26   -4.124853E-25
        -1.143621E-23   -2.331624E-22   -3.475279E-21   -3.742001E-20   -2.570690E-19   -1.017303E-18   -2.570636E-19   -3.741711E-20   -3.474469E-21   -2.330085E-22
        -1.141815E-23   -4.111857E-25   -1.097039E-26   -2.176153E-28   -3.193848E-30   -3.410977E-32   -2.559814E-34   -1.257510E-36   -3.403348E-39   -1.806603E-42
         1.994673E-44
   3    -9.328941E-42   -3.674863E-39   -1.040651E-36   -2.056641E-34   -2.879683E-32   -2.932207E-30   -2.215709E-28   -1.257816E-26   -5.391798E-25   -1.743431E-23
        -4.223676E-22   -7.565303E-21   -9.735089E-20   -8.113806E-19   -2.412494E-18    9.856451E-18   -2.412372E-18   -8.113140E-19   -9.733074E-20   -7.560885E-21
        -4.217623E-22   -1.738391E-23   -5.364866E-25   -1.248061E-26   -2.190790E-28   -2.886201E-30   -2.817440E-32   -1.994465E-34   -9.941554E-37   -3.399039E-39
        -7.765132E-42
   4    -7.665643E-39   -1.310632E-36   -2.056641E-34   -2.668779E-32   -2.734690E-30   -2.176629E-28   -1.338629E-26   -6.343968E-25   -2.308104E-23   -6.397501E-22
        -1.323308E-20   -1.893778E-19   -1.217091E-18    2.039301E-17    6.340398E-16    5.311395E-15    6.340422E-16    2.039425E-17   -1.216694E-18   -1.892757E-19
        -1.321617E-20   -6.380827E-22   -2.297710E-23   -6.300168E-25   -1.325516E-26   -2.147748E-28   -2.686674E-30   -2.607092E-32   -1.993407E-34   -1.255773E-36
        -7.216374E-39
   5    -2.243684E-36   -2.629736E-34   -2.879683E-32   -2.734690E-30   -2.153502E-28   -1.368867E-26   -6.910227E-25   -2.739286E-23   -8.423859E-22   -1.947747E-20
        -2.919882E-19    1.632294E-19    1.796440E-16    6.238500E-15    1.086857E-13    7.861451E-13    1.086858E-13    6.238523E-15    1.796500E-16    1.649790E-19
        -2.916171E-19   -1.943245E-20   -8.390452E-22   -2.722746E-23   -6.852057E-25   -1.353660E-26   -2.122897E-28   -2.685737E-30   -2.815156E-32   -2.556165E-34
        -2.165654E-36
   6    -3.835241E-34   -3.474946E-32   -2.932207E-30   -2.176629E-28   -1.368867E-26   -7.094657E-25   -2.970225E-23   -9.858541E-22   -2.481428E-20   -3.696905E-19
         5.521960E-18    6.969858E-16    3.088211E-14    8.295907E-13    1.292356E-11    8.752166E-11    1.292356E-11    8.295910E-13    3.088220E-14    6.970050E-16
         5.527555E-18   -3.687603E-19   -2.472888E-20   -9.808045E-22   -2.949255E-23   -7.029860E-25   -1.353310E-26   -2.146513E-28   -2.883441E-30   -3.406160E-32
        -3.745852E-34
   7    -4.373108E-32   -3.235219E-30   -2.215709E-28   -1.338629E-26   -6.910227E-25   -2.970225E-23   -1.037588E-21   -2.787120E-20   -4.061627E-19    1.441492E-17
         1.690194E-15    9.348649E-14    3.430381E-12    8.313013E-11    1.206852E-09    7.720166E-09    1.206852E-09    8.313013E-11    3.430382E-12    9.348665E-14
         1.690244E-15    1.442751E-17   -4.045421E-19   -2.775251E-20   -1.031692E-21   -2.948677E-23   -6.849099E-25   -1.324588E-26   -2.188602E-28   -3.189594E-30
        -4.302800E-32
   8    -3.523517E-30   -2.195078E-28   -1.257816E-26   -6.343968E-25   -2.739286E-23   -9.858541E-22   -2.787120E-20   -4.144588E-19    2.171475E-17    2.804528E-15
         1.885512E-13    8.824739E-12    2.908469E-10    6.472221E-09    8.746766E-08    5.249075E-07    8.746766E-08    6.472221E-09    2.908469E-10    8.824739E-12
         1.885514E-13    2.804621E-15    2.173392E-17   -4.124646E-19   -2.774852E-20   -9.804939E-22   -2.721344E-23   -6.295597E-25   -1.246880E-26   -2.173587E-28
        -3.485050E-30
   9    -2.061140E-28   -1.103072E-26   -5.391798E-25   -2.308104E-23   -8.423859E-22   -2.481428E-20   -4.061627E-19    2.171475E-17    3.307876E-15    2.650556E-13
         1.517152E-11    6.326132E-10    1.880414E-08    3.800529E-07    4.713948E-06    2.619763E-05    4.713948E-06    3.800529E-07    1.880414E-08    6.326132E-10
         1.517152E-11    2.650558E-13    3.307997E-15    2.173471E-17   -4.044196E-19   -2.472006E-20   -8.386246E-22   -2.296207E-23   -5.360547E-25   -1.095989E-26
        -2.046600E-28
  10    -8.840510E-27   -4.124853E-25   -1.743431E-23   -6.397501E-22   -1.947747E-20   -3.696905E-19    1.441492E-17    2.804528E-15    2.650556E-13    1.810381E-11
         9.179275E-10    3.400779E-08    8.946613E-07    1.602298E-05    1.782068E-04    8.998457E-04    1.782068E-04    1.602298E-05    8.946613E-07    3.400779E-08
         9.179275E-10    1.810381E-11    2.650558E-13    2.804628E-15    1.442906E-17   -3.686183E-19   -1.942461E-20   -6.377639E-22   -1.737356E-23   -4.109031E-25
        -8.803508E-27
  11    -2.775036E-25   -1.143621E-23   -4.223676E-22   -1.323308E-20   -2.919882E-19    5.521960E-18    1.690194E-15    1.885512E-13    1.517152E-11    9.179275E-10
         4.112552E-08    1.325792E-06    2.987690E-05    4.560916E-04    4.386200E-03    1.955139E-02    4.386200E-03    4.560916E-04    2.987690E-05    1.325792E-06
         4.112552E-08    9.179276E-10    1.517152E-11    1.885514E-13    1.690250E-15    5.528659E-18   -2.915341E-19   -1.321211E-20   -4.216099E-22   -1.141343E-23
        -2.768972E-25
  12    -6.319392E-24   -2.331624E-22   -7.565303E-21   -1.893778E-19    1.632294E-19    6.969858E-16    9.348649E-14    8.824739E-12    6.326132E-10    3.400779E-08
         1.325792E-06    3.611283E-05    6.658487E-04    8.168655E-03    6.414378E-02    0.241231        6.414378E-02    8.168655E-03    6.658487E-04    3.611283E-05
         1.325792E-06    3.400779E-08    6.326132E-10    8.824739E-12    9.348664E-14    6.970084E-16    1.654078E-19   -1.892481E-19   -7.559635E-21   -2.329636E-22
        -6.313353E-24
  13    -1.038002E-22   -3.475279E-21   -9.735089E-20   -1.217091E-18    1.796440E-16    3.088211E-14    3.430381E-12    2.908469E-10    1.880414E-08    8.946613E-07
         2.987690E-05    6.658487E-04    9.510766E-03    8.633532E-02    0.507974         1.50717        0.507974        8.633532E-02    9.510766E-03    6.658487E-04
         2.987690E-05    8.946613E-07    1.880414E-08    2.908469E-10    3.430382E-12    3.088222E-14    1.796511E-16   -1.216599E-18   -9.732550E-20   -3.474248E-21
        -1.037648E-22
  14    -1.231291E-21   -3.742001E-20   -8.113806E-19    2.039301E-17    6.238500E-15    8.295907E-13    8.313013E-11    6.472221E-09    3.800529E-07    1.602298E-05
         4.560916E-04    8.168655E-03    8.633532E-02    0.533677         2.11889         4.59775         2.11889        0.533677        8.633532E-02    8.168655E-03
         4.560916E-04    1.602298E-05    3.800529E-07    6.472221E-09    8.313013E-11    8.295911E-13    6.238527E-15    2.039446E-17   -8.113014E-19   -3.741653E-20
        -1.231162E-21
  15    -9.820481E-21   -2.570690E-19   -2.412494E-18    6.340398E-16    1.086857E-13    1.292356E-11    1.206852E-09    8.746766E-08    4.713948E-06    1.782068E-04
         4.386200E-03    6.414378E-02    0.507974         2.11889         5.74428         7.88301         5.74428         2.11889        0.507974        6.414378E-02
         4.386200E-03    1.782068E-04    4.713948E-06    8.746766E-08    1.206852E-09    1.292356E-11    1.086858E-13    6.340425E-16   -2.412356E-18   -2.570630E-19
        -9.820249E-21
  16    -4.907628E-20   -1.017303E-18    9.856451E-18    5.311395E-15    7.861451E-13    8.752166E-11    7.720166E-09    5.249075E-07    2.619763E-05    8.998457E-04
         1.955139E-02    0.241231         1.50717         4.59775         7.88301         10.2431         7.88301         4.59775         1.50717        0.241231    
         1.955139E-02    8.998457E-04    2.619763E-05    5.249075E-07    7.720166E-09    8.752166E-11    7.861451E-13    5.311395E-15    9.856450E-18   -1.017303E-18
        -4.907628E-20
  17    -9.820274E-21   -2.570636E-19   -2.412372E-18    6.340422E-16    1.086858E-13    1.292356E-11    1.206852E-09    8.746766E-08    4.713948E-06    1.782068E-04
         4.386200E-03    6.414378E-02    0.507974         2.11889         5.74428         7.88301         5.74428         2.11889        0.507974        6.414378E-02
         4.386200E-03    1.782068E-04    4.713948E-06    8.746766E-08    1.206852E-09    1.292356E-11    1.086857E-13    6.340398E-16   -2.412494E-18   -2.570690E-19
        -9.820481E-21
  18    -1.231184E-21   -3.741711E-20   -8.113140E-19    2.039425E-17    6.238523E-15    8.295910E-13    8.313013E-11    6.472221E-09    3.800529E-07    1.602298E-05
         4.560916E-04    8.168655E-03    8.633532E-02    0.533677         2.11889         4.59775         2.11889        0.533677        8.633532E-02    8.168655E-03
         4.560916E-04    1.602298E-05    3.800529E-07    6.472221E-09    8.313013E-11    8.295907E-13    6.238500E-15    2.039301E-17   -8.113806E-19   -3.742001E-20
        -1.231291E-21
  19    -1.037726E-22   -3.474469E-21   -9.733074E-20   -1.216694E-18    1.796500E-16    3.088220E-14    3.430382E-12    2.908469E-10    1.880414E-08    8.946613E-07
         2.987690E-05    6.658487E-04    9.510766E-03    8.633532E-02    0.507974         1.50717        0.507974        8.633532E-02    9.510766E-03    6.658487E-04
         2.987690E-05    8.946613E-07    1.880414E-08    2.908469E-10    3.430381E-12    3.088211E-14    1.796440E-16   -1.217091E-18   -9.735089E-20   -3.475279E-21
        -1.038002E-22
  20    -6.314745E-24   -2.330085E-22   -7.560885E-21   -1.892757E-19    1.649790E-19    6.970050E-16    9.348665E-14    8.824739E-12    6.326132E-10    3.400779E-08
         1.325792E-06    3.611283E-05    6.658487E-04    8.168655E-03    6.414378E-02    0.241231        6.414378E-02    8.168655E-03    6.658487E-04    3.611283E-05
         1.325792E-06    3.400779E-08    6.326132E-10    8.824739E-12    9.348649E-14    6.969858E-16    1.632294E-19   -1.893777E-19   -7.565303E-21   -2.331624E-22
        -6.319392E-24
  21    -2.770265E-25   -1.141815E-23   -4.217623E-22   -1.321617E-20   -2.916171E-19    5.527555E-18    1.690244E-15    1.885514E-13    1.517152E-11    9.179275E-10
         4.112552E-08    1.325792E-06    2.987690E-05    4.560916E-04    4.386200E-03    1.955139E-02    4.386200E-03    4.560916E-04    2.987690E-05    1.325792E-06
         4.112552E-08    9.179275E-10    1.517152E-11    1.885512E-13    1.690194E-15    5.521960E-18   -2.919882E-19   -1.323308E-20   -4.223676E-22   -1.143621E-23
        -2.775036E-25
  22    -8.810384E-27   -4.111857E-25   -1.738391E-23   -6.380827E-22   -1.943245E-20   -3.687603E-19    1.442751E-17    2.804621E-15    2.650558E-13    1.810381E-11
         9.179276E-10    3.400779E-08    8.946613E-07    1.602298E-05    1.782068E-04    8.998457E-04    1.782068E-04    1.602298E-05    8.946613E-07    3.400779E-08
         9.179275E-10    1.810381E-11    2.650556E-13    2.804528E-15    1.441492E-17   -3.696905E-19   -1.947747E-20   -6.397501E-22   -1.743431E-23   -4.124853E-25
        -8.840510E-27
  23    -2.048881E-28   -1.097039E-26   -5.364866E-25   -2.297710E-23   -8.390452E-22   -2.472888E-20   -4.045421E-19    2.173392E-17    3.307997E-15    2.650558E-13
         1.517152E-11    6.326132E-10    1.880414E-08    3.800529E-07    4.713948E-06    2.619763E-05    4.713948E-06    3.800529E-07    1.880414E-08    6.326132E-10
         1.517152E-11    2.650556E-13    3.307876E-15    2.171475E-17   -4.061627E-19   -2.481428E-20   -8.423859E-22   -2.308104E-23   -5.391798E-25   -1.103072E-26
        -2.061140E-28
  24    -3.490026E-30   -2.176153E-28   -1.248061E-26   -6.300168E-25   -2.722746E-23   -9.808045E-22   -2.775251E-20   -4.124646E-19    2.173471E-17    2.804628E-15
         1.885514E-13    8.824739E-12    2.908469E-10    6.472221E-09    8.746766E-08    5.249075E-07    8.746766E-08    6.472221E-09    2.908469E-10    8.824739E-12
         1.885512E-13    2.804528E-15    2.171475E-17   -4.144588E-19   -2.787120E-20   -9.858541E-22   -2.739286E-23   -6.343968E-25   -1.257816E-26   -2.195078E-28
        -3.523517E-30
  25    -4.310138E-32   -3.193848E-30   -2.190790E-28   -1.325516E-26   -6.852057E-25   -2.949255E-23   -1.031692E-21   -2.774852E-20   -4.044196E-19    1.442906E-17
         1.690250E-15    9.348664E-14    3.430382E-12    8.313013E-11    1.206852E-09    7.720166E-09    1.206852E-09    8.313013E-11    3.430381E-12    9.348649E-14
         1.690194E-15    1.441492E-17   -4.061627E-19   -2.787120E-20   -1.037588E-21   -2.970225E-23   -6.910227E-25   -1.338629E-26   -2.215709E-28   -3.235219E-30
        -4.373108E-32
  26    -3.753195E-34   -3.410977E-32   -2.886201E-30   -2.147748E-28   -1.353660E-26   -7.029860E-25   -2.948677E-23   -9.804939E-22   -2.472006E-20   -3.686183E-19
         5.528659E-18    6.970084E-16    3.088222E-14    8.295911E-13    1.292356E-11    8.752166E-11    1.292356E-11    8.295907E-13    3.088211E-14    6.969858E-16
         5.521960E-18   -3.696905E-19   -2.481428E-20   -9.858541E-22   -2.970225E-23   -7.094657E-25   -1.368867E-26   -2.176629E-28   -2.932207E-30   -3.474946E-32
        -3.835241E-34
  27    -2.170547E-36   -2.559814E-34   -2.817440E-32   -2.686674E-30   -2.122897E-28   -1.353310E-26   -6.849099E-25   -2.721344E-23   -8.386246E-22   -1.942461E-20
        -2.915341E-19    1.654078E-19    1.796511E-16    6.238527E-15    1.086858E-13    7.861451E-13    1.086857E-13    6.238500E-15    1.796440E-16    1.632294E-19
        -2.919882E-19   -1.947747E-20   -8.423859E-22   -2.739286E-23   -6.910227E-25   -1.368867E-26   -2.153502E-28   -2.734690E-30   -2.879683E-32   -2.629736E-34
        -2.243684E-36
  28    -7.237013E-39   -1.257510E-36   -1.994465E-34   -2.607092E-32   -2.685737E-30   -2.146513E-28   -1.324588E-26   -6.295597E-25   -2.296207E-23   -6.377639E-22
        -1.321211E-20   -1.892481E-19   -1.216599E-18    2.039446E-17    6.340425E-16    5.311395E-15    6.340398E-16    2.039301E-17   -1.217091E-18   -1.893777E-19
        -1.323308E-20   -6.397501E-22   -2.308104E-23   -6.343968E-25   -1.338629E-26   -2.176629E-28   -2.734690E-30   -2.668779E-32   -2.056641E-34   -1.310632E-36
        -7.665642E-39
  29    -7.814519E-42   -3.403348E-39   -9.941554E-37   -1.993407E-34   -2.815156E-32   -2.883441E-30   -2.188602E-28   -1.246880E-26   -5.360547E-25   -1.737356E-23
        -4.216099E-22   -7.559635E-21   -9.732550E-20   -8.113014E-19   -2.412356E-18    9.856450E-18   -2.412494E-18   -8.113806E-19   -9.735089E-20   -7.565303E-21
        -4.223676E-22   -1.743431E-23   -5.391798E-25   -1.257816E-26   -2.215709E-28   -2.932207E-30   -2.879683E-32   -2.056641E-34   -1.040651E-36   -3.674863E-39
        -9.328940E-42
  30     1.989683E-44   -1.806603E-42   -3.399039E-39   -1.255773E-36   -2.556165E-34   -3.406160E-32   -3.189594E-30   -2.173587E-28   -1.095989E-26   -4.109031E-25
        -1.141343E-23   -2.329636E-22   -3.474248E-21   -3.741653E-20   -2.570630E-19   -1.017303E-18   -2.570690E-19   -3.742001E-20   -3.475279E-21   -2.331624E-22
        -1.143621E-23   -4.124853E-25   -1.103072E-26   -2.195078E-28   -3.235219E-30   -3.474946E-32   -2.629736E-34   -1.310632E-36   -3.674863E-39   -2.721492E-42
         1.726429E-44
  31      0.00000        1.994673E-44   -7.765132E-42   -7.216374E-39   -2.165654E-36   -3.745852E-34   -4.302800E-32   -3.485050E-30   -2.046600E-28   -8.803508E-27
        -2.768972E-25   -6.313353E-24   -1.037648E-22   -1.231162E-21   -9.820249E-21   -4.907628E-20   -9.820481E-21   -1.231291E-21   -1.038002E-22   -6.319392E-24
        -2.775036E-25   -8.840510E-27   -2.061140E-28   -3.523517E-30   -4.373108E-32   -3.835241E-34   -2.243684E-36   -7.665642E-39   -9.328940E-42    1.726429E-44
          0.00000    

 CONCENTRATION WILL BE SAVED ON UNIT 1030 AT END OF TIME STEP   72, STRESS PERIOD    2


  MASS BUDGET FOR ENTIRE MODEL AT END OF TIME STEP   72, STRESS PERIOD   2
  ---------------------------------------------------------------------------------------------------

     CUMULATIVE MASS      M       RATES FOR THIS TIME STEP      M/T          PACKAGE NAME    
     ------------------                 ------------------------                     ----------------

           IN:                                      IN:
           ---                                      ---
     STORAGE-AQUEOUS =  7238243676.8798       STORAGE-AQUEOUS =      885017.1329     MST                              
                 WEL =  7884000000.0000                   WEL =           0.0000     SSM_WEL-1                        
                 CHD =           0.0000                   CHD =           0.0000     SSM_CHD-1                        

            TOTAL IN = 15122243676.8798              TOTAL IN =      885017.1329

          OUT:                                     OUT:
          ----                                     ----
     STORAGE-AQUEOUS =  7888715360.9193       STORAGE-AQUEOUS =          15.5335     MST                              
                 WEL =  7233528315.9606                   WEL =      885001.5994     SSM_WEL-1                        
                 CHD =       7.5562E-18                   CHD =           0.0000     SSM_CHD-1                        

           TOTAL OUT = 15122243676.8799             TOTAL OUT =      885017.1329

            IN - OUT =      -1.1063E-04              IN - OUT =      -2.8056E-08

 PERCENT DISCREPANCY =          -0.00     PERCENT DISCREPANCY =          -0.00




         TIME SUMMARY AT END OF TIME STEP   72 IN STRESS PERIOD    2
                    SECONDS     MINUTES      HOURS       DAYS        YEARS
                    -----------------------------------------------------------
   TIME STEP LENGTH 2.16991E+06  36165.      602.75      25.115     6.87602E-02
 STRESS PERIOD TIME 1.56233E+08 2.60389E+06  43398.      1808.3      4.9507    
         TOTAL TIME 2.35073E+08 3.91789E+06  65298.      2720.8      7.4490    


end timestep


start timestep kper="2" kstp="73" mode="normal"

 UBDSV1 SAVING  STORAGE-AQUEOUS ON UNIT   1029 AT TIME STEP     73, STRESS PERIOD      2
 UBDSV1 SAVING     FLOW-JA-FACE ON UNIT   1029 AT TIME STEP     73, STRESS PERIOD      2
 UBDSV06 SAVING  SOURCE-SINK MIX IN MODEL GWT_P06-MF6      PACKAGE GWT_P06-MF6     CONNECTED TO MODEL GWT_P06-MF6      PACKAGE SSM              ON UNIT   1029 AT TIME STEP     73, STRESS PERIOD      2
1
  CONCENTRATION IN LAYER   1 AT END OF TIME STEP  73 IN STRESS PERIOD    2
  ---------------------------------------------------------------------------

                1               2               3               4               5               6               7               8               9              10
               11              12              13              14              15              16              17              18              19              20
               21              22              23              24              25              26              27              28              29              30
               31
 ................................................................................................................................................................................................................................................................................................................................................................................................................................................................................................................
   1      0.00000        1.630649E-44   -1.077717E-41   -8.293807E-39   -2.388329E-36   -4.045559E-34   -4.581734E-32   -3.670270E-30   -2.135685E-28   -9.115400E-27
        -2.848439E-25   -6.460844E-24   -1.057660E-22   -1.250307E-21   -9.932091E-21   -4.933379E-20   -9.931882E-21   -1.250199E-21   -1.057380E-22   -6.456130E-24
        -2.843582E-25   -9.084615E-27   -2.123107E-28   -3.635754E-30   -4.516544E-32   -3.960231E-34   -2.311910E-36   -7.843708E-39   -9.178026E-42    1.910558E-44
          0.00000    
   2     1.630649E-44   -3.431699E-42   -3.998831E-39   -1.395989E-36   -2.773161E-34   -3.639566E-32   -3.369581E-30   -2.274785E-28   -1.137765E-26   -4.235707E-25
        -1.169481E-23   -2.375185E-22   -3.526275E-21   -3.775431E-20   -2.569222E-19   -1.002065E-18   -2.569168E-19   -3.775139E-20   -3.525457E-21   -2.373629E-22
        -1.167649E-23   -4.222472E-25   -1.131595E-26   -2.255355E-28   -3.326934E-30   -3.573353E-32   -2.700488E-34   -1.340543E-36   -3.714105E-39   -2.466716E-42
         1.915906E-44
   3    -1.077717E-41   -3.998831E-39   -1.108866E-36   -2.168347E-34   -3.014966E-32   -3.053076E-30   -2.295886E-28   -1.297475E-26   -5.538014E-25   -1.783332E-23
        -4.302398E-22   -7.666808E-21   -9.769369E-20   -7.915396E-19   -1.955451E-18    1.326626E-17   -1.955328E-18   -7.914727E-19   -9.767341E-20   -7.662355E-21
        -4.296276E-22   -1.778216E-23   -5.510570E-25   -1.287495E-26   -2.270296E-28   -3.005648E-30   -2.950557E-32   -2.103757E-34   -1.060358E-36   -3.709559E-39
        -9.125512E-42
   4    -8.293807E-39   -1.395989E-36   -2.168347E-34   -2.793667E-32   -2.846700E-30   -2.254923E-28   -1.380706E-26   -6.516300E-25   -2.361242E-23   -6.516176E-22
        -1.338805E-20   -1.880974E-19   -1.070786E-18    2.477010E-17    7.034152E-16    5.778177E-15    7.034176E-16    2.477134E-17   -1.070387E-18   -1.879949E-19
        -1.337100E-20   -6.499310E-22   -2.350688E-23   -6.471649E-25   -1.367288E-26   -2.225261E-28   -2.797204E-30   -2.729841E-32   -2.102654E-34   -1.338721E-36
        -7.821914E-39
   5    -2.388329E-36   -2.773161E-34   -3.014966E-32   -2.846700E-30   -2.230749E-28   -1.411754E-26   -7.097647E-25   -2.802392E-23   -8.578339E-22   -1.966358E-20
        -2.852513E-19    7.454316E-19    2.024410E-16    6.807658E-15    1.169336E-13    8.378750E-13    1.169337E-13    6.807681E-15    2.024471E-16    7.471739E-19
        -2.848791E-19   -1.961823E-20   -8.544538E-22   -2.785591E-23   -7.038332E-25   -1.396190E-26   -2.199313E-28   -2.796235E-30   -2.948187E-32   -2.696681E-34
        -2.306774E-36
   6    -4.045559E-34   -3.639566E-32   -3.053076E-30   -2.254923E-28   -1.411754E-26   -7.286879E-25   -3.038577E-23   -1.003706E-21   -2.499857E-20   -3.530571E-19
         7.016781E-18    7.721926E-16    3.346967E-14    8.881485E-13    1.370911E-11    9.210726E-11    1.370911E-11    8.881488E-13    3.346977E-14    7.722117E-16
         7.022335E-18   -3.521244E-19   -2.491252E-20   -9.985962E-22   -3.017272E-23   -7.220801E-25   -1.395832E-26   -2.223990E-28   -3.002796E-30   -3.568352E-32
        -3.952569E-34
   7    -4.581734E-32   -3.369581E-30   -2.295886E-28   -1.380706E-26   -7.097647E-25   -3.038577E-23   -1.056275E-21   -2.804073E-20   -3.789741E-19    1.714904E-17
         1.859092E-15    1.009294E-13    3.660065E-12    8.785388E-11    1.264764E-09    8.028565E-09    1.264764E-09    8.785388E-11    3.660065E-12    1.009295E-13
         1.859141E-15    1.716152E-17   -3.773495E-19   -2.792111E-20   -1.050308E-21   -3.016685E-23   -7.035313E-25   -1.366338E-26   -2.268045E-28   -3.322538E-30
        -4.508928E-32
   8    -3.670270E-30   -2.274785E-28   -1.297475E-26   -6.516300E-25   -2.802392E-23   -1.003706E-21   -2.804073E-20   -3.826333E-19    2.538482E-17    3.074493E-15
         2.030985E-13    9.392742E-12    3.064361E-10    6.756858E-09    9.055911E-08    5.393330E-07    9.055911E-08    6.756858E-09    3.064361E-10    9.392742E-12
         2.030987E-13    3.074585E-15    2.540382E-17   -3.806344E-19   -2.791710E-20   -9.982818E-22   -2.784166E-23   -6.466985E-25   -1.286285E-26   -2.252717E-28
        -3.630616E-30
   9    -2.135685E-28   -1.137765E-26   -5.538014E-25   -2.361242E-23   -8.578339E-22   -2.499857E-20   -3.789741E-19    2.538482E-17    3.622700E-15    2.851951E-13
         1.612378E-11    6.650346E-10    1.956904E-08    3.918679E-07    4.820413E-06    2.658904E-05    4.820413E-06    3.918679E-07    1.956904E-08    6.650346E-10
         1.612377E-11    2.851954E-13    3.622820E-15    2.540459E-17   -3.772267E-19   -2.490362E-20   -8.540281E-22   -2.349161E-23   -5.506166E-25   -1.130521E-26
        -2.120764E-28
  10    -9.115400E-27   -4.235707E-25   -1.783332E-23   -6.516176E-22   -1.966358E-20   -3.530571E-19    1.714904E-17    3.074493E-15    2.851951E-13    1.923031E-11
         9.638251E-10    3.531565E-08    9.194497E-07    1.631273E-05    1.799470E-04    9.020468E-04    1.799470E-04    1.631273E-05    9.194497E-07    3.531565E-08
         9.638251E-10    1.923031E-11    2.851954E-13    3.074592E-15    1.716306E-17   -3.519821E-19   -1.961033E-20   -6.496085E-22   -1.777165E-23   -4.219593E-25
        -9.077586E-27
  11    -2.848439E-25   -1.169481E-23   -4.302398E-22   -1.338805E-20   -2.852513E-19    7.016781E-18    1.859092E-15    2.030985E-13    1.612378E-11    9.638251E-10
         4.267491E-08    1.359990E-06    3.031809E-05    4.584240E-04    4.373474E-03    1.936172E-02    4.373474E-03    4.584240E-04    3.031809E-05    1.359990E-06
         4.267491E-08    9.638251E-10    1.612377E-11    2.030987E-13    1.859147E-15    7.023429E-18   -2.847959E-19   -1.336692E-20   -4.294736E-22   -1.167170E-23
        -2.842266E-25
  12    -6.460844E-24   -2.375185E-22   -7.666808E-21   -1.880974E-19    7.454316E-19    7.721926E-16    1.009294E-13    9.392742E-12    6.650346E-10    3.531565E-08
         1.359990E-06    3.660130E-05    6.673090E-04    8.108018E-03    6.318929E-02    0.236219        6.318929E-02    8.108018E-03    6.673090E-04    3.660130E-05
         1.359990E-06    3.531565E-08    6.650346E-10    9.392742E-12    1.009295E-13    7.722150E-16    7.475999E-19   -1.879672E-19   -7.661096E-21   -2.373175E-22
        -6.454718E-24
  13    -1.057660E-22   -3.526275E-21   -9.769369E-20   -1.070786E-18    2.024410E-16    3.346967E-14    3.660065E-12    3.064361E-10    1.956904E-08    9.194497E-07
         3.031809E-05    6.673090E-04    9.422249E-03    8.472643E-02    0.495278         1.46304        0.495278        8.472643E-02    9.422249E-03    6.673090E-04
         3.031809E-05    9.194497E-07    1.956904E-08    3.064361E-10    3.660065E-12    3.346978E-14    2.024482E-16   -1.070292E-18   -9.766814E-20   -3.525235E-21
        -1.057302E-22
  14    -1.250307E-21   -3.775431E-20   -7.915396E-19    2.477010E-17    6.807658E-15    8.881485E-13    8.785388E-11    6.756858E-09    3.918679E-07    1.631273E-05
         4.584240E-04    8.108018E-03    8.472643E-02    0.519257         2.05205         4.44294         2.05205        0.519257        8.472643E-02    8.108018E-03
         4.584240E-04    1.631273E-05    3.918679E-07    6.756858E-09    8.785388E-11    8.881488E-13    6.807685E-15    2.477155E-17   -7.914600E-19   -3.775081E-20
        -1.250177E-21
  15    -9.932091E-21   -2.569222E-19   -1.955451E-18    7.034152E-16    1.169336E-13    1.370911E-11    1.264764E-09    9.055911E-08    4.820413E-06    1.799470E-04
         4.373474E-03    6.318929E-02    0.495278         2.05205         5.54835         7.60754         5.54835         2.05205        0.495278        6.318929E-02
         4.373474E-03    1.799470E-04    4.820413E-06    9.055911E-08    1.264764E-09    1.370911E-11    1.169337E-13    7.034179E-16   -1.955313E-18   -2.569161E-19
        -9.931857E-21
  16    -4.933379E-20   -1.002065E-18    1.326626E-17    5.778177E-15    8.378750E-13    9.210726E-11    8.028565E-09    5.393330E-07    2.658904E-05    9.020468E-04
         1.936172E-02    0.236219         1.46304         4.44294         7.60754         9.87967         7.60754         4.44294         1.46304        0.236219    
         1.936172E-02    9.020468E-04    2.658904E-05    5.393330E-07    8.028565E-09    9.210726E-11    8.378750E-13    5.778177E-15    1.326626E-17   -1.002065E-18
        -4.933379E-20
  17    -9.931882E-21   -2.569168E-19   -1.955328E-18    7.034176E-16    1.169337E-13    1.370911E-11    1.264764E-09    9.055911E-08    4.820413E-06    1.799470E-04
         4.373474E-03    6.318929E-02    0.495278         2.05205         5.54835         7.60754         5.54835         2.05205        0.495278        6.318929E-02
         4.373474E-03    1.799470E-04    4.820413E-06    9.055911E-08    1.264764E-09    1.370911E-11    1.169336E-13    7.034152E-16   -1.955451E-18   -2.569222E-19
        -9.932091E-21
  18    -1.250199E-21   -3.775139E-20   -7.914727E-19    2.477134E-17    6.807681E-15    8.881488E-13    8.785388E-11    6.756858E-09    3.918679E-07    1.631273E-05
         4.584240E-04    8.108018E-03    8.472643E-02    0.519257         2.05205         4.44294         2.05205        0.519257        8.472643E-02    8.108018E-03
         4.584240E-04    1.631273E-05    3.918679E-07    6.756858E-09    8.785388E-11    8.881485E-13    6.807658E-15    2.477010E-17   -7.915396E-19   -3.775431E-20
        -1.250307E-21
  19    -1.057380E-22   -3.525457E-21   -9.767341E-20   -1.070387E-18    2.024471E-16    3.346977E-14    3.660065E-12    3.064361E-10    1.956904E-08    9.194497E-07
         3.031809E-05    6.673090E-04    9.422249E-03    8.472643E-02    0.495278         1.46304        0.495278        8.472643E-02    9.422249E-03    6.673090E-04
         3.031809E-05    9.194497E-07    1.956904E-08    3.064361E-10    3.660065E-12    3.346967E-14    2.024410E-16   -1.070786E-18   -9.769369E-20   -3.526275E-21
        -1.057660E-22
  20    -6.456130E-24   -2.373629E-22   -7.662355E-21   -1.879949E-19    7.471739E-19    7.722117E-16    1.009295E-13    9.392742E-12    6.650346E-10    3.531565E-08
         1.359990E-06    3.660130E-05    6.673090E-04    8.108018E-03    6.318929E-02    0.236219        6.318929E-02    8.108018E-03    6.673090E-04    3.660130E-05
         1.359990E-06    3.531565E-08    6.650346E-10    9.392742E-12    1.009294E-13    7.721926E-16    7.454317E-19   -1.880974E-19   -7.666808E-21   -2.375185E-22
        -6.460844E-24
  21    -2.843582E-25   -1.167649E-23   -4.296276E-22   -1.337100E-20   -2.848791E-19    7.022335E-18    1.859141E-15    2.030987E-13    1.612377E-11    9.638251E-10
         4.267491E-08    1.359990E-06    3.031809E-05    4.584240E-04    4.373474E-03    1.936172E-02    4.373474E-03    4.584240E-04    3.031809E-05    1.359990E-06
         4.267491E-08    9.638251E-10    1.612378E-11    2.030985E-13    1.859092E-15    7.016781E-18   -2.852513E-19   -1.338805E-20   -4.302398E-22   -1.169481E-23
        -2.848439E-25
  22    -9.084615E-27   -4.222472E-25   -1.778216E-23   -6.499310E-22   -1.961823E-20   -3.521244E-19    1.716152E-17    3.074585E-15    2.851954E-13    1.923031E-11
         9.638251E-10    3.531565E-08    9.194497E-07    1.631273E-05    1.799470E-04    9.020468E-04    1.799470E-04    1.631273E-05    9.194497E-07    3.531565E-08
         9.638251E-10    1.923031E-11    2.851951E-13    3.074493E-15    1.714904E-17   -3.530571E-19   -1.966358E-20   -6.516176E-22   -1.783332E-23   -4.235707E-25
        -9.115400E-27
  23    -2.123107E-28   -1.131595E-26   -5.510570E-25   -2.350688E-23   -8.544538E-22   -2.491252E-20   -3.773495E-19    2.540382E-17    3.622820E-15    2.851954E-13
         1.612377E-11    6.650346E-10    1.956904E-08    3.918679E-07    4.820413E-06    2.658904E-05    4.820413E-06    3.918679E-07    1.956904E-08    6.650346E-10
         1.612378E-11    2.851951E-13    3.622700E-15    2.538482E-17   -3.789741E-19   -2.499857E-20   -8.578339E-22   -2.361242E-23   -5.538014E-25   -1.137765E-26
        -2.135685E-28
  24    -3.635754E-30   -2.255355E-28   -1.287495E-26   -6.471649E-25   -2.785591E-23   -9.985962E-22   -2.792111E-20   -3.806344E-19    2.540459E-17    3.074592E-15
         2.030987E-13    9.392742E-12    3.064361E-10    6.756858E-09    9.055911E-08    5.393330E-07    9.055911E-08    6.756858E-09    3.064361E-10    9.392742E-12
         2.030985E-13    3.074493E-15    2.538482E-17   -3.826333E-19   -2.804073E-20   -1.003706E-21   -2.802392E-23   -6.516300E-25   -1.297475E-26   -2.274785E-28
        -3.670270E-30
  25    -4.516544E-32   -3.326934E-30   -2.270296E-28   -1.367288E-26   -7.038332E-25   -3.017272E-23   -1.050308E-21   -2.791710E-20   -3.772267E-19    1.716306E-17
         1.859147E-15    1.009295E-13    3.660065E-12    8.785388E-11    1.264764E-09    8.028565E-09    1.264764E-09    8.785388E-11    3.660065E-12    1.009294E-13
         1.859092E-15    1.714904E-17   -3.789741E-19   -2.804073E-20   -1.056275E-21   -3.038577E-23   -7.097647E-25   -1.380706E-26   -2.295886E-28   -3.369581E-30
        -4.581734E-32
  26    -3.960231E-34   -3.573353E-32   -3.005648E-30   -2.225261E-28   -1.396190E-26   -7.220801E-25   -3.016685E-23   -9.982818E-22   -2.490362E-20   -3.519821E-19
         7.023429E-18    7.722150E-16    3.346978E-14    8.881488E-13    1.370911E-11    9.210726E-11    1.370911E-11    8.881485E-13    3.346967E-14    7.721926E-16
         7.016781E-18   -3.530571E-19   -2.499857E-20   -1.003706E-21   -3.038577E-23   -7.286879E-25   -1.411754E-26   -2.254923E-28   -3.053076E-30   -3.639566E-32
        -4.045559E-34
  27    -2.311910E-36   -2.700488E-34   -2.950557E-32   -2.797204E-30   -2.199313E-28   -1.395832E-26   -7.035313E-25   -2.784166E-23   -8.540281E-22   -1.961033E-20
        -2.847959E-19    7.475999E-19    2.024482E-16    6.807685E-15    1.169337E-13    8.378750E-13    1.169336E-13    6.807658E-15    2.024410E-16    7.454317E-19
        -2.852513E-19   -1.966358E-20   -8.578339E-22   -2.802392E-23   -7.097647E-25   -1.411754E-26   -2.230749E-28   -2.846700E-30   -3.014966E-32   -2.773161E-34
        -2.388329E-36
  28    -7.843708E-39   -1.340543E-36   -2.103757E-34   -2.729841E-32   -2.796235E-30   -2.223990E-28   -1.366338E-26   -6.466985E-25   -2.349161E-23   -6.496085E-22
        -1.336692E-20   -1.879672E-19   -1.070292E-18    2.477155E-17    7.034179E-16    5.778177E-15    7.034152E-16    2.477010E-17   -1.070786E-18   -1.880974E-19
        -1.338805E-20   -6.516176E-22   -2.361242E-23   -6.516300E-25   -1.380706E-26   -2.254923E-28   -2.846700E-30   -2.793667E-32   -2.168347E-34   -1.395989E-36
        -8.293806E-39
  29    -9.178026E-42   -3.714105E-39   -1.060358E-36   -2.102654E-34   -2.948187E-32   -3.002796E-30   -2.268045E-28   -1.286285E-26   -5.506166E-25   -1.777165E-23
        -4.294736E-22   -7.661096E-21   -9.766814E-20   -7.914600E-19   -1.955313E-18    1.326626E-17   -1.955451E-18   -7.915396E-19   -9.769369E-20   -7.666808E-21
        -4.302398E-22   -1.783332E-23   -5.538014E-25   -1.297475E-26   -2.295886E-28   -3.053076E-30   -3.014966E-32   -2.168347E-34   -1.108866E-36   -3.998831E-39
        -1.077717E-41
  30     1.910558E-44   -2.466716E-42   -3.709559E-39   -1.338721E-36   -2.696681E-34   -3.568352E-32   -3.322538E-30   -2.252717E-28   -1.130521E-26   -4.219593E-25
        -1.167170E-23   -2.373175E-22   -3.525235E-21   -3.775081E-20   -2.569161E-19   -1.002065E-18   -2.569222E-19   -3.775431E-20   -3.526275E-21   -2.375185E-22
        -1.169481E-23   -4.235707E-25   -1.137765E-26   -2.274785E-28   -3.369581E-30   -3.639566E-32   -2.773161E-34   -1.395989E-36   -3.998831E-39   -3.431699E-42
         1.630649E-44
  31      0.00000        1.915906E-44   -9.125512E-42   -7.821914E-39   -2.306774E-36   -3.952569E-34   -4.508928E-32   -3.630616E-30   -2.120764E-28   -9.077586E-27
        -2.842266E-25   -6.454718E-24   -1.057302E-22   -1.250177E-21   -9.931857E-21   -4.933379E-20   -9.932091E-21   -1.250307E-21   -1.057660E-22   -6.460844E-24
        -2.848439E-25   -9.115400E-27   -2.135685E-28   -3.670270E-30   -4.581734E-32   -4.045559E-34   -2.388329E-36   -8.293806E-39   -1.077717E-41    1.630649E-44
          0.00000    

 CONCENTRATION WILL BE SAVED ON UNIT 1030 AT END OF TIME STEP   73, STRESS PERIOD    2


  MASS BUDGET FOR ENTIRE MODEL AT END OF TIME STEP   73, STRESS PERIOD   2
  ---------------------------------------------------------------------------------------------------

     CUMULATIVE MASS      M       RATES FOR THIS TIME STEP      M/T          PACKAGE NAME    
     ------------------                 ------------------------                     ----------------

           IN:                                      IN:
           ---                                      ---
     STORAGE-AQUEOUS =  7259682019.4689       STORAGE-AQUEOUS =      853618.0246     MST                              
                 WEL =  7884000000.0000                   WEL =           0.0000     SSM_WEL-1                        
                 CHD =           0.0000                   CHD =           0.0000     SSM_CHD-1                        

            TOTAL IN = 15143682019.4689              TOTAL IN =      853618.0246

          OUT:                                     OUT:
          ----                                     ----
     STORAGE-AQUEOUS =  7888715723.5854       STORAGE-AQUEOUS =          14.4404     MST                              
                 WEL =  7254966295.8836                   WEL =      853603.5841     SSM_WEL-1                        
                 CHD =       7.5562E-18                   CHD =           0.0000     SSM_CHD-1                        

           TOTAL OUT = 15143682019.4691             TOTAL OUT =      853618.0246

            IN - OUT =      -1.1253E-04              IN - OUT =      -2.7823E-08

 PERCENT DISCREPANCY =          -0.00     PERCENT DISCREPANCY =          -0.00




         TIME SUMMARY AT END OF TIME STEP   73 IN STRESS PERIOD    2
                    SECONDS     MINUTES      HOURS       DAYS        YEARS
                    -----------------------------------------------------------
   TIME STEP LENGTH 2.16991E+06  36165.      602.75      25.115     6.87602E-02
 STRESS PERIOD TIME 1.58403E+08 2.64006E+06  44001.      1833.4      5.0195    
         TOTAL TIME 2.37243E+08 3.95406E+06  65901.      2745.9      7.5178    


end timestep


start timestep kper="2" kstp="74" mode="normal"

 UBDSV1 SAVING  STORAGE-AQUEOUS ON UNIT   1029 AT TIME STEP     74, STRESS PERIOD      2
 UBDSV1 SAVING     FLOW-JA-FACE ON UNIT   1029 AT TIME STEP     74, STRESS PERIOD      2
 UBDSV06 SAVING  SOURCE-SINK MIX IN MODEL GWT_P06-MF6      PACKAGE GWT_P06-MF6     CONNECTED TO MODEL GWT_P06-MF6      PACKAGE SSM              ON UNIT   1029 AT TIME STEP     74, STRESS PERIOD      2
1
  CONCENTRATION IN LAYER   1 AT END OF TIME STEP  74 IN STRESS PERIOD    2
  ---------------------------------------------------------------------------

                1               2               3               4               5               6               7               8               9              10
               11              12              13              14              15              16              17              18              19              20
               21              22              23              24              25              26              27              28              29              30
               31
 ................................................................................................................................................................................................................................................................................................................................................................................................................................................................................................................
   1      0.00000        1.519510E-44   -1.234366E-41   -8.961940E-39   -2.540774E-36   -4.265726E-34   -4.798884E-32   -3.822228E-30   -2.212501E-28   -9.397379E-27
        -2.923423E-25   -6.604787E-24   -1.077578E-22   -1.269440E-21   -1.004281E-20   -4.957936E-20   -1.004260E-20   -1.269331E-21   -1.077295E-22   -6.600003E-24
        -2.918479E-25   -9.365926E-27   -2.199596E-28   -3.786660E-30   -4.731408E-32   -4.177004E-34   -2.460942E-36   -8.489429E-39   -1.065564E-41    1.816992E-44
          0.00000    
   2     1.519510E-44   -4.202551E-42   -4.343565E-39   -1.485923E-36   -2.923251E-34   -3.810880E-32   -3.508711E-30   -2.356935E-28   -1.173362E-26   -4.348969E-25
        -1.195789E-23   -2.419251E-22   -3.577216E-21   -3.807266E-20   -2.564686E-19   -9.847435E-19   -2.564632E-19   -3.806971E-20   -3.576391E-21   -2.417677E-22
        -1.193931E-23   -4.335490E-25   -1.167054E-26   -2.336989E-28   -3.464753E-30   -3.742353E-32   -2.847732E-34   -1.428061E-36   -4.045058E-39   -3.185054E-42
         1.822721E-44
   3    -1.234366E-41   -4.343565E-39   -1.180729E-36   -2.285212E-34   -3.155714E-32   -3.178216E-30   -2.378522E-28   -1.338174E-26   -5.687431E-25   -1.823916E-23
        -4.381852E-22   -7.766767E-21   -9.792710E-20   -7.687175E-19   -1.454204E-18    1.693607E-17   -1.454081E-18   -7.686502E-19   -9.790670E-20   -7.762278E-21
        -4.375662E-22   -1.818723E-23   -5.659468E-25   -1.327965E-26   -2.352245E-28   -3.129330E-30   -3.089074E-32   -2.218125E-34   -1.130130E-36   -4.040262E-39
        -1.059982E-41
   4    -8.961940E-39   -1.485923E-36   -2.285212E-34   -2.923584E-32   -2.962652E-30   -2.335613E-28   -1.423889E-26   -6.692416E-25   -2.415275E-23   -6.635601E-22
        -1.353670E-20   -1.863714E-19   -9.080204E-19    2.950957E-17    7.777037E-16    6.273554E-15    7.777061E-16    2.951081E-17   -9.076204E-19   -1.862684E-19
        -1.351952E-20   -6.618543E-22   -2.404558E-23   -6.646902E-25   -1.410159E-26   -2.305151E-28   -2.911637E-30   -2.857554E-32   -2.216974E-34   -1.426151E-36
        -8.466422E-39
   5    -2.540774E-36   -2.923251E-34   -3.155714E-32   -2.962652E-30   -2.310355E-28   -1.455765E-26   -7.289179E-25   -2.866537E-23   -8.733296E-22   -1.983413E-20
        -2.772879E-19    1.381287E-18    2.270253E-16    7.414730E-15    1.256524E-13    8.921146E-13    1.256524E-13    7.414753E-15    2.270313E-16    1.383021E-18
        -2.769144E-19   -1.978843E-20   -8.699099E-22   -2.849473E-23   -7.228703E-25   -1.439838E-26   -2.278071E-28   -2.910636E-30   -3.086614E-32   -2.843761E-34
        -2.455554E-36
   6    -4.265726E-34   -3.810880E-32   -3.178216E-30   -2.335613E-28   -1.455765E-26   -7.483316E-25   -3.108039E-23   -1.021567E-21   -2.515569E-20   -3.339804E-19
         8.646079E-18    8.530431E-16    3.622093E-14    9.498220E-13    1.452926E-11    9.685552E-11    1.452926E-11    9.498223E-13    3.622103E-14    8.530621E-16
         8.651593E-18   -3.330453E-19   -2.506898E-20   -1.016396E-21   -3.086396E-23   -7.415938E-25   -1.439471E-26   -2.303843E-28   -3.126384E-30   -3.737164E-32
        -4.169010E-34
   7    -4.798884E-32   -3.508711E-30   -2.378522E-28   -1.423889E-26   -7.289179E-25   -3.108039E-23   -1.074952E-21   -2.817476E-20   -3.481351E-19    2.012228E-17
         2.040275E-15    1.088234E-13    3.901191E-12    9.276554E-11    1.324438E-09    8.343624E-09    1.324438E-09    9.276554E-11    3.901191E-12    1.088236E-13
         2.040323E-15    2.013465E-17   -3.465067E-19   -2.805423E-20   -1.068914E-21   -3.085799E-23   -7.225622E-25   -1.409186E-26   -2.349930E-28   -3.460213E-30
        -4.723505E-32
   8    -3.822228E-30   -2.356935E-28   -1.338174E-26   -6.692416E-25   -2.866537E-23   -1.021567E-21   -2.817476E-20   -3.466432E-19    2.937153E-17    3.363724E-15
         2.185005E-13    9.987505E-12    3.225869E-10    7.048764E-09    9.369908E-08    5.538462E-07    9.369908E-08    7.048764E-09    3.225869E-10    9.987505E-12
         2.185007E-13    3.363815E-15    2.939036E-17   -3.446398E-19   -2.805018E-20   -1.016078E-21   -2.848024E-23   -6.642143E-25   -1.326726E-26   -2.334277E-28
        -3.781356E-30
   9    -2.212501E-28   -1.173362E-26   -5.687431E-25   -2.415275E-23   -8.733296E-22   -2.515569E-20   -3.481351E-19    2.937153E-17    3.959849E-15    3.064984E-13
         1.711921E-11    6.985304E-10    2.035017E-08    4.037979E-07    4.926695E-06    2.697465E-05    4.926695E-06    4.037979E-07    2.035017E-08    6.985304E-10
         1.711921E-11    3.064987E-13    3.959968E-15    2.939113E-17   -3.463837E-19   -2.506002E-20   -8.694791E-22   -2.403007E-23   -5.654978E-25   -1.165955E-26
        -2.197189E-28
  10    -9.397379E-27   -4.348969E-25   -1.823916E-23   -6.635601E-22   -1.983413E-20   -3.339804E-19    2.012228E-17    3.363724E-15    3.064984E-13    2.040720E-11
         1.011171E-09    3.664727E-08    9.443481E-07    1.659943E-05    1.816323E-04    9.039810E-04    1.816323E-04    1.659943E-05    9.443481E-07    3.664727E-08
         1.011171E-09    2.040720E-11    3.064986E-13    3.363822E-15    2.013617E-17   -3.329026E-19   -1.978047E-20   -6.615280E-22   -1.817656E-23   -4.332557E-25
        -9.358740E-27
  11    -2.923423E-25   -1.195789E-23   -4.381852E-22   -1.353670E-20   -2.772879E-19    8.646079E-18    2.040275E-15    2.185005E-13    1.711921E-11    1.011171E-09
         4.425070E-08    1.394227E-06    3.075089E-05    4.605993E-04    4.359649E-03    1.917069E-02    4.359649E-03    4.605993E-04    3.075089E-05    1.394227E-06
         4.425070E-08    1.011171E-09    1.711921E-11    2.185007E-13    2.040329E-15    8.652677E-18   -2.768311E-19   -1.351541E-20   -4.374104E-22   -1.193445E-23
        -2.917140E-25
  12    -6.604787E-24   -2.419251E-22   -7.766767E-21   -1.863714E-19    1.381287E-18    8.530431E-16    1.088234E-13    9.987505E-12    6.985304E-10    3.664727E-08
         1.394227E-06    3.707856E-05    6.685371E-04    8.045997E-03    6.224143E-02    0.231303        6.224143E-02    8.045997E-03    6.685371E-04    3.707856E-05
         1.394227E-06    3.664727E-08    6.985304E-10    9.987505E-12    1.088236E-13    8.530654E-16    1.383443E-18   -1.862407E-19   -7.761010E-21   -2.417219E-22
        -6.598572E-24
  13    -1.077578E-22   -3.577216E-21   -9.792710E-20   -9.080204E-19    2.270253E-16    3.622093E-14    3.901191E-12    3.225869E-10    2.035017E-08    9.443481E-07
         3.075089E-05    6.685371E-04    9.332534E-03    8.314007E-02    0.482902         1.42029        0.482902        8.314007E-02    9.332534E-03    6.685371E-04
         3.075089E-05    9.443481E-07    2.035017E-08    3.225869E-10    3.901191E-12    3.622104E-14    2.270324E-16   -9.075255E-19   -9.790141E-20   -3.576168E-21
        -1.077215E-22
  14    -1.269440E-21   -3.807266E-20   -7.687175E-19    2.950957E-17    7.414730E-15    9.498220E-13    9.276554E-11    7.048764E-09    4.037979E-07    1.659943E-05
         4.605993E-04    8.045997E-03    8.314007E-02    0.505240         1.98748         4.29375         1.98748        0.505240        8.314007E-02    8.045997E-03
         4.605993E-04    1.659943E-05    4.037979E-07    7.048764E-09    9.276554E-11    9.498223E-13    7.414756E-15    2.951102E-17   -7.686375E-19   -3.806913E-20
        -1.269309E-21
  15    -1.004281E-20   -2.564686E-19   -1.454204E-18    7.777037E-16    1.256524E-13    1.452926E-11    1.324438E-09    9.369908E-08    4.926695E-06    1.816323E-04
         4.359649E-03    6.224143E-02    0.482902         1.98748         5.35950         7.34231         5.35950         1.98748        0.482902        6.224143E-02
         4.359649E-03    1.816323E-04    4.926695E-06    9.369908E-08    1.324438E-09    1.452926E-11    1.256525E-13    7.777064E-16   -1.454065E-18   -2.564625E-19
        -1.004257E-20
  16    -4.957936E-20   -9.847435E-19    1.693607E-17    6.273554E-15    8.921146E-13    9.685552E-11    8.343624E-09    5.538462E-07    2.697465E-05    9.039810E-04
         1.917069E-02    0.231303         1.42029         4.29375         7.34231         9.52990         7.34231         4.29375         1.42029        0.231303    
         1.917069E-02    9.039810E-04    2.697465E-05    5.538462E-07    8.343624E-09    9.685552E-11    8.921146E-13    6.273554E-15    1.693607E-17   -9.847435E-19
        -4.957936E-20
  17    -1.004260E-20   -2.564632E-19   -1.454081E-18    7.777061E-16    1.256524E-13    1.452926E-11    1.324438E-09    9.369908E-08    4.926695E-06    1.816323E-04
         4.359649E-03    6.224143E-02    0.482902         1.98748         5.35950         7.34231         5.35950         1.98748        0.482902        6.224143E-02
         4.359649E-03    1.816323E-04    4.926695E-06    9.369908E-08    1.324438E-09    1.452926E-11    1.256524E-13    7.777037E-16   -1.454204E-18   -2.564686E-19
        -1.004281E-20
  18    -1.269331E-21   -3.806971E-20   -7.686502E-19    2.951081E-17    7.414753E-15    9.498223E-13    9.276554E-11    7.048764E-09    4.037979E-07    1.659943E-05
         4.605993E-04    8.045997E-03    8.314007E-02    0.505240         1.98748         4.29375         1.98748        0.505240        8.314007E-02    8.045997E-03
         4.605993E-04    1.659943E-05    4.037979E-07    7.048764E-09    9.276554E-11    9.498220E-13    7.414730E-15    2.950957E-17   -7.687175E-19   -3.807265E-20
        -1.269440E-21
  19    -1.077295E-22   -3.576391E-21   -9.790670E-20   -9.076204E-19    2.270313E-16    3.622103E-14    3.901191E-12    3.225869E-10    2.035017E-08    9.443481E-07
         3.075089E-05    6.685371E-04    9.332534E-03    8.314007E-02    0.482902         1.42029        0.482902        8.314007E-02    9.332534E-03    6.685371E-04
         3.075089E-05    9.443481E-07    2.035017E-08    3.225869E-10    3.901191E-12    3.622093E-14    2.270253E-16   -9.080203E-19   -9.792710E-20   -3.577216E-21
        -1.077578E-22
  20    -6.600003E-24   -2.417677E-22   -7.762278E-21   -1.862684E-19    1.383021E-18    8.530621E-16    1.088236E-13    9.987505E-12    6.985304E-10    3.664727E-08
         1.394227E-06    3.707856E-05    6.685371E-04    8.045997E-03    6.224143E-02    0.231303        6.224143E-02    8.045997E-03    6.685371E-04    3.707856E-05
         1.394227E-06    3.664727E-08    6.985304E-10    9.987505E-12    1.088234E-13    8.530431E-16    1.381287E-18   -1.863714E-19   -7.766767E-21   -2.419251E-22
        -6.604787E-24
  21    -2.918479E-25   -1.193931E-23   -4.375662E-22   -1.351952E-20   -2.769144E-19    8.651593E-18    2.040323E-15    2.185007E-13    1.711921E-11    1.011171E-09
         4.425070E-08    1.394227E-06    3.075089E-05    4.605993E-04    4.359649E-03    1.917069E-02    4.359649E-03    4.605993E-04    3.075089E-05    1.394227E-06
         4.425070E-08    1.011171E-09    1.711921E-11    2.185005E-13    2.040275E-15    8.646079E-18   -2.772879E-19   -1.353670E-20   -4.381852E-22   -1.195789E-23
        -2.923423E-25
  22    -9.365926E-27   -4.335490E-25   -1.818723E-23   -6.618543E-22   -1.978843E-20   -3.330453E-19    2.013465E-17    3.363815E-15    3.064987E-13    2.040720E-11
         1.011171E-09    3.664727E-08    9.443481E-07    1.659943E-05    1.816323E-04    9.039810E-04    1.816323E-04    1.659943E-05    9.443481E-07    3.664727E-08
         1.011171E-09    2.040720E-11    3.064984E-13    3.363724E-15    2.012228E-17   -3.339804E-19   -1.983413E-20   -6.635601E-22   -1.823916E-23   -4.348969E-25
        -9.397379E-27
  23    -2.199596E-28   -1.167054E-26   -5.659468E-25   -2.404558E-23   -8.699099E-22   -2.506898E-20   -3.465067E-19    2.939036E-17    3.959968E-15    3.064986E-13
         1.711921E-11    6.985304E-10    2.035017E-08    4.037979E-07    4.926695E-06    2.697465E-05    4.926695E-06    4.037979E-07    2.035017E-08    6.985304E-10
         1.711921E-11    3.064984E-13    3.959849E-15    2.937153E-17   -3.481351E-19   -2.515569E-20   -8.733296E-22   -2.415275E-23   -5.687431E-25   -1.173362E-26
        -2.212501E-28
  24    -3.786660E-30   -2.336989E-28   -1.327965E-26   -6.646902E-25   -2.849473E-23   -1.016396E-21   -2.805423E-20   -3.446398E-19    2.939113E-17    3.363822E-15
         2.185007E-13    9.987505E-12    3.225869E-10    7.048764E-09    9.369908E-08    5.538462E-07    9.369908E-08    7.048764E-09    3.225869E-10    9.987505E-12
         2.185005E-13    3.363724E-15    2.937153E-17   -3.466432E-19   -2.817476E-20   -1.021567E-21   -2.866537E-23   -6.692416E-25   -1.338174E-26   -2.356935E-28
        -3.822228E-30
  25    -4.731408E-32   -3.464753E-30   -2.352245E-28   -1.410159E-26   -7.228703E-25   -3.086396E-23   -1.068914E-21   -2.805018E-20   -3.463837E-19    2.013617E-17
         2.040329E-15    1.088236E-13    3.901191E-12    9.276554E-11    1.324438E-09    8.343624E-09    1.324438E-09    9.276554E-11    3.901191E-12    1.088234E-13
         2.040275E-15    2.012228E-17   -3.481351E-19   -2.817476E-20   -1.074952E-21   -3.108039E-23   -7.289179E-25   -1.423889E-26   -2.378522E-28   -3.508711E-30
        -4.798884E-32
  26    -4.177004E-34   -3.742353E-32   -3.129330E-30   -2.305151E-28   -1.439838E-26   -7.415938E-25   -3.085799E-23   -1.016078E-21   -2.506002E-20   -3.329026E-19
         8.652677E-18    8.530654E-16    3.622104E-14    9.498223E-13    1.452926E-11    9.685552E-11    1.452926E-11    9.498220E-13    3.622093E-14    8.530431E-16
         8.646079E-18   -3.339804E-19   -2.515569E-20   -1.021567E-21   -3.108039E-23   -7.483316E-25   -1.455765E-26   -2.335613E-28   -3.178216E-30   -3.810880E-32
        -4.265726E-34
  27    -2.460942E-36   -2.847732E-34   -3.089074E-32   -2.911637E-30   -2.278071E-28   -1.439471E-26   -7.225622E-25   -2.848024E-23   -8.694791E-22   -1.978047E-20
        -2.768311E-19    1.383443E-18    2.270324E-16    7.414756E-15    1.256525E-13    8.921146E-13    1.256524E-13    7.414730E-15    2.270253E-16    1.381287E-18
        -2.772879E-19   -1.983413E-20   -8.733296E-22   -2.866537E-23   -7.289179E-25   -1.455765E-26   -2.310355E-28   -2.962652E-30   -3.155714E-32   -2.923251E-34
        -2.540774E-36
  28    -8.489429E-39   -1.428061E-36   -2.218125E-34   -2.857554E-32   -2.910636E-30   -2.303843E-28   -1.409186E-26   -6.642143E-25   -2.403007E-23   -6.615280E-22
        -1.351541E-20   -1.862407E-19   -9.075255E-19    2.951102E-17    7.777064E-16    6.273554E-15    7.777037E-16    2.950957E-17   -9.080203E-19   -1.863714E-19
        -1.353670E-20   -6.635601E-22   -2.415275E-23   -6.692416E-25   -1.423889E-26   -2.335613E-28   -2.962652E-30   -2.923584E-32   -2.285212E-34   -1.485923E-36
        -8.961940E-39
  29    -1.065564E-41   -4.045058E-39   -1.130130E-36   -2.216974E-34   -3.086614E-32   -3.126384E-30   -2.349930E-28   -1.326726E-26   -5.654978E-25   -1.817656E-23
        -4.374104E-22   -7.761010E-21   -9.790141E-20   -7.686375E-19   -1.454065E-18    1.693607E-17   -1.454204E-18   -7.687175E-19   -9.792710E-20   -7.766767E-21
        -4.381852E-22   -1.823916E-23   -5.687431E-25   -1.338174E-26   -2.378522E-28   -3.178216E-30   -3.155714E-32   -2.285212E-34   -1.180729E-36   -4.343565E-39
        -1.234366E-41
  30     1.816992E-44   -3.185054E-42   -4.040262E-39   -1.426151E-36   -2.843761E-34   -3.737164E-32   -3.460213E-30   -2.334277E-28   -1.165955E-26   -4.332557E-25
        -1.193445E-23   -2.417219E-22   -3.576168E-21   -3.806913E-20   -2.564625E-19   -9.847435E-19   -2.564686E-19   -3.807265E-20   -3.577216E-21   -2.419251E-22
        -1.195789E-23   -4.348969E-25   -1.173362E-26   -2.356935E-28   -3.508711E-30   -3.810880E-32   -2.923251E-34   -1.485923E-36   -4.343565E-39   -4.202551E-42
         1.519510E-44
  31      0.00000        1.822721E-44   -1.059982E-41   -8.466422E-39   -2.455554E-36   -4.169010E-34   -4.723505E-32   -3.781356E-30   -2.197189E-28   -9.358740E-27
        -2.917140E-25   -6.598572E-24   -1.077215E-22   -1.269309E-21   -1.004257E-20   -4.957936E-20   -1.004281E-20   -1.269440E-21   -1.077578E-22   -6.604787E-24
        -2.923423E-25   -9.397379E-27   -2.212501E-28   -3.822228E-30   -4.798884E-32   -4.265726E-34   -2.540774E-36   -8.961940E-39   -1.234366E-41    1.519510E-44
          0.00000    

 CONCENTRATION WILL BE SAVED ON UNIT 1030 AT END OF TIME STEP   74, STRESS PERIOD    2


  MASS BUDGET FOR ENTIRE MODEL AT END OF TIME STEP   74, STRESS PERIOD   2
  ---------------------------------------------------------------------------------------------------

     CUMULATIVE MASS      M       RATES FOR THIS TIME STEP      M/T          PACKAGE NAME    
     ------------------                 ------------------------                     ----------------

           IN:                                      IN:
           ---                                      ---
     STORAGE-AQUEOUS =  7280361369.2887       STORAGE-AQUEOUS =      823396.9426     MST                              
                 WEL =  7884000000.0000                   WEL =           0.0000     SSM_WEL-1                        
                 CHD =           0.0000                   CHD =           0.0000     SSM_CHD-1                        

            TOTAL IN = 15164361369.2887              TOTAL IN =      823396.9426

          OUT:                                     OUT:
          ----                                     ----
     STORAGE-AQUEOUS =  7888716059.1615       STORAGE-AQUEOUS =          13.3618     MST                              
                 WEL =  7275645310.1273                   WEL =      823383.5808     SSM_WEL-1                        
                 CHD =       7.5562E-18                   CHD =           0.0000     SSM_CHD-1                        

           TOTAL OUT = 15164361369.2888             TOTAL OUT =      823396.9426

            IN - OUT =      -1.1063E-04              IN - OUT =      -2.5728E-08

 PERCENT DISCREPANCY =          -0.00     PERCENT DISCREPANCY =          -0.00




         TIME SUMMARY AT END OF TIME STEP   74 IN STRESS PERIOD    2
                    SECONDS     MINUTES      HOURS       DAYS        YEARS
                    -----------------------------------------------------------
   TIME STEP LENGTH 2.16991E+06  36165.      602.75      25.115     6.87602E-02
 STRESS PERIOD TIME 1.60573E+08 2.67622E+06  44604.      1858.5      5.0883    
         TOTAL TIME 2.39413E+08 3.99022E+06  66504.      2771.0      7.5865    


end timestep


start timestep kper="2" kstp="75" mode="normal"

 UBDSV1 SAVING  STORAGE-AQUEOUS ON UNIT   1029 AT TIME STEP     75, STRESS PERIOD      2
 UBDSV1 SAVING     FLOW-JA-FACE ON UNIT   1029 AT TIME STEP     75, STRESS PERIOD      2
 UBDSV06 SAVING  SOURCE-SINK MIX IN MODEL GWT_P06-MF6      PACKAGE GWT_P06-MF6     CONNECTED TO MODEL GWT_P06-MF6      PACKAGE SSM              ON UNIT   1029 AT TIME STEP     75, STRESS PERIOD      2
1
  CONCENTRATION IN LAYER   1 AT END OF TIME STEP  75 IN STRESS PERIOD    2
  ---------------------------------------------------------------------------

                1               2               3               4               5               6               7               8               9              10
               11              12              13              14              15              16              17              18              19              20
               21              22              23              24              25              26              27              28              29              30
               31
 ................................................................................................................................................................................................................................................................................................................................................................................................................................................................................................................
   1      0.00000        1.391769E-44   -1.403585E-41   -9.672167E-39   -2.701377E-36   -4.496139E-34   -5.024856E-32   -3.979547E-30   -2.291645E-28   -9.686595E-27
        -3.000013E-25   -6.751243E-24   -1.097753E-22   -1.288680E-21   -1.015243E-20   -4.981176E-20   -1.015222E-20   -1.288569E-21   -1.097467E-22   -6.746391E-24
        -2.994982E-25   -9.654461E-27   -2.278405E-28   -3.942899E-30   -4.955024E-32   -4.403904E-34   -2.618000E-36   -9.176261E-39   -1.225460E-41    1.707787E-44
          0.00000    
   2     1.391769E-44   -5.037876E-42   -4.710161E-39   -1.580641E-36   -3.080271E-34   -3.989120E-32   -3.652751E-30   -2.441590E-28   -1.209882E-26   -4.464676E-25
        -1.222549E-23   -2.463809E-22   -3.628028E-21   -3.837311E-20   -2.556811E-19   -9.651883E-19   -2.556756E-19   -3.837015E-20   -3.627195E-21   -2.462217E-22
        -1.220664E-23   -4.450950E-25   -1.203434E-26   -2.421116E-28   -3.607449E-30   -3.918211E-32   -3.001808E-34   -1.520272E-36   -4.397281E-39   -3.965340E-42
         1.713919E-44
   3    -1.403585E-41   -4.710161E-39   -1.256404E-36   -2.407438E-34   -3.302116E-32   -3.307755E-30   -2.463680E-28   -1.379935E-26   -5.840098E-25   -1.865185E-23
        -4.461987E-22   -7.864858E-21   -9.803992E-20   -7.426786E-19   -9.057583E-19    2.088088E-17   -9.056345E-19   -7.426110E-19   -9.801940E-20   -7.860333E-21
        -4.455727E-22   -1.859915E-23   -5.811608E-25   -1.369493E-26   -2.436701E-28   -3.257373E-30   -3.233177E-32   -2.337769E-34   -1.203636E-36   -4.392225E-39
        -1.219531E-41
   4    -9.672167E-39   -1.580641E-36   -2.407438E-34   -3.058704E-32   -3.082665E-30   -2.418759E-28   -1.468199E-26   -6.872370E-25   -2.470200E-23   -6.755650E-22
        -1.367810E-20   -1.841596E-19   -7.275577E-19    3.463434E-17    8.571687E-16    6.798807E-15    8.571711E-16    3.463558E-17   -7.271564E-19   -1.840562E-19
        -1.366079E-20   -6.738397E-22   -2.459318E-23   -6.825981E-25   -1.454152E-26   -2.387480E-28   -3.030090E-30   -2.990403E-32   -2.336570E-34   -1.518269E-36
        -9.151983E-39
   5    -2.701377E-36   -3.080271E-34   -3.302116E-32   -3.082665E-30   -2.392382E-28   -1.500924E-26   -7.484883E-25   -2.931715E-23   -8.888497E-22   -1.998714E-20
        -2.679932E-19    2.075798E-18    2.535026E-16    8.061601E-15    1.348609E-13    9.489411E-13    1.348610E-13    8.061624E-15    2.535086E-16    2.077522E-18
        -2.676186E-19   -1.994109E-20   -8.853901E-22   -2.914384E-23   -7.423230E-25   -1.484628E-26   -2.359230E-28   -3.029056E-30   -3.230624E-32   -2.997668E-34
        -2.612349E-36
   6    -4.496139E-34   -3.989120E-32   -3.307755E-30   -2.418759E-28   -1.500924E-26   -7.684028E-25   -3.178601E-23   -1.039404E-21   -2.528246E-20   -3.122569E-19
         1.041917E-17    9.398601E-16    3.914345E-14    1.014722E-12    1.538489E-11    1.017689E-10    1.538489E-11    1.014722E-12    3.914355E-14    9.398791E-16
         1.042464E-17   -3.113194E-19   -2.519509E-20   -1.034172E-21   -3.156616E-23   -7.615332E-25   -1.484252E-26   -2.386134E-28   -3.254329E-30   -3.912825E-32
        -4.395566E-34
   7    -5.024856E-32   -3.652751E-30   -2.463680E-28   -1.468199E-26   -7.484883E-25   -3.178601E-23   -1.093582E-21   -2.826926E-20   -3.133462E-19    2.335080E-17
         2.234419E-15    1.171882E-13    4.154117E-12    9.786877E-11    1.385889E-09    8.665301E-09    1.385889E-09    9.786877E-11    4.154117E-12    1.171883E-13
         2.234467E-15    2.336308E-17   -3.117141E-19   -2.814781E-20   -1.087472E-21   -3.156009E-23   -7.420085E-25   -1.453155E-26   -2.434319E-28   -3.602760E-30
        -4.946826E-32
   8    -3.979547E-30   -2.441590E-28   -1.379935E-26   -6.872370E-25   -2.931715E-23   -1.039404E-21   -2.826926E-20   -3.061484E-19    3.369606E-17    3.673256E-15
         2.347921E-13    1.060977E-11    3.393070E-10    7.347932E-09    9.688654E-08    5.684401E-07    9.688654E-08    7.347932E-09    3.393070E-10    1.060977E-11
         2.347923E-13    3.673346E-15    3.371473E-17   -3.041407E-19   -2.814373E-20   -1.033849E-21   -2.912912E-23   -6.821126E-25   -1.368225E-26   -2.418329E-28
        -3.937425E-30
   9    -2.291645E-28   -1.209882E-26   -5.840098E-25   -2.470200E-23   -8.888497E-22   -2.528246E-20   -3.133462E-19    3.369606E-17    4.320511E-15    3.290114E-13
         1.815891E-11    7.331105E-10    2.114738E-08    4.158373E-07    5.032741E-06    2.735432E-05    5.032741E-06    4.158373E-07    2.114738E-08    7.331105E-10
         1.815891E-11    3.290117E-13    4.320628E-15    3.371549E-17   -3.115909E-19   -2.518607E-20   -8.849542E-22   -2.457743E-23   -5.807030E-25   -1.202310E-26
        -2.275934E-28
  10    -9.686595E-27   -4.464676E-25   -1.865185E-23   -6.755650E-22   -1.998714E-20   -3.122569E-19    2.335080E-17    3.673256E-15    3.290114E-13    2.163572E-11
         1.059975E-09    3.800219E-08    9.693423E-07    1.688294E-05    1.832626E-04    9.056533E-04    1.832626E-04    1.688294E-05    9.693423E-07    3.800219E-08
         1.059975E-09    2.163571E-11    3.290117E-13    3.673353E-15    2.336458E-17   -3.111765E-19   -1.993308E-20   -6.735098E-22   -1.858832E-23   -4.447963E-25
        -9.647117E-27
  11    -3.000013E-25   -1.222549E-23   -4.461987E-22   -1.367810E-20   -2.679932E-19    1.041917E-17    2.234419E-15    2.347921E-13    1.815891E-11    1.059975E-09
         4.585230E-08    1.428481E-06    3.117513E-05    4.626196E-04    4.344765E-03    1.897846E-02    4.344765E-03    4.626196E-04    3.117513E-05    1.428481E-06
         4.585230E-08    1.059975E-09    1.815891E-11    2.347923E-13    2.234473E-15    1.042572E-17   -2.675351E-19   -1.365665E-20   -4.454153E-22   -1.220170E-23
        -2.993619E-25
  12    -6.751243E-24   -2.463809E-22   -7.864858E-21   -1.841596E-19    2.075798E-18    9.398601E-16    1.171882E-13    1.060977E-11    7.331105E-10    3.800219E-08
         1.428481E-06    3.754444E-05    6.695376E-04    7.982679E-03    6.130054E-02    0.226481        6.130054E-02    7.982679E-03    6.695376E-04    3.754444E-05
         1.428481E-06    3.800219E-08    7.331105E-10    1.060977E-11    1.171883E-13    9.398823E-16    2.077942E-18   -1.840283E-19   -7.859056E-21   -2.461754E-22
        -6.744940E-24
  13    -1.097753E-22   -3.628028E-21   -9.803992E-20   -7.275577E-19    2.535026E-16    3.914345E-14    4.154117E-12    3.393070E-10    2.114738E-08    9.693423E-07
         3.117513E-05    6.695376E-04    9.241729E-03    8.157637E-02    0.470839         1.37888        0.470839        8.157637E-02    9.241729E-03    6.695376E-04
         3.117513E-05    9.693423E-07    2.114738E-08    3.393070E-10    4.154117E-12    3.914356E-14    2.535097E-16   -7.270614E-19   -9.801409E-20   -3.626970E-21
        -1.097387E-22
  14    -1.288680E-21   -3.837311E-20   -7.426786E-19    3.463434E-17    8.061601E-15    1.014722E-12    9.786877E-11    7.347932E-09    4.158373E-07    1.688294E-05
         4.626196E-04    7.982679E-03    8.157637E-02    0.491613         1.92509         4.14998         1.92509        0.491613        8.157637E-02    7.982679E-03
         4.626196E-04    1.688294E-05    4.158373E-07    7.347932E-09    9.786877E-11    1.014722E-12    8.061627E-15    3.463579E-17   -7.425983E-19   -3.836956E-20
        -1.288547E-21
  15    -1.015243E-20   -2.556811E-19   -9.057583E-19    8.571687E-16    1.348609E-13    1.538489E-11    1.385889E-09    9.688654E-08    5.032741E-06    1.832626E-04
         4.344765E-03    6.130054E-02    0.470839         1.92509         5.17745         7.08692         5.17745         1.92509        0.470839        6.130054E-02
         4.344765E-03    1.832626E-04    5.032741E-06    9.688654E-08    1.385889E-09    1.538489E-11    1.348610E-13    8.571714E-16   -9.056187E-19   -2.556750E-19
        -1.015219E-20
  16    -4.981176E-20   -9.651883E-19    2.088088E-17    6.798807E-15    9.489411E-13    1.017689E-10    8.665301E-09    5.684401E-07    2.735432E-05    9.056533E-04
         1.897846E-02    0.226481         1.37888         4.14998         7.08692         9.19324         7.08692         4.14998         1.37888        0.226481    
         1.897846E-02    9.056533E-04    2.735432E-05    5.684401E-07    8.665301E-09    1.017689E-10    9.489411E-13    6.798807E-15    2.088088E-17   -9.651883E-19
        -4.981176E-20
  17    -1.015222E-20   -2.556756E-19   -9.056345E-19    8.571711E-16    1.348610E-13    1.538489E-11    1.385889E-09    9.688654E-08    5.032741E-06    1.832626E-04
         4.344765E-03    6.130054E-02    0.470839         1.92509         5.17745         7.08692         5.17745         1.92509        0.470839        6.130054E-02
         4.344765E-03    1.832626E-04    5.032741E-06    9.688654E-08    1.385889E-09    1.538489E-11    1.348609E-13    8.571688E-16   -9.057582E-19   -2.556811E-19
        -1.015243E-20
  18    -1.288569E-21   -3.837015E-20   -7.426110E-19    3.463558E-17    8.061624E-15    1.014722E-12    9.786877E-11    7.347932E-09    4.158373E-07    1.688294E-05
         4.626196E-04    7.982679E-03    8.157637E-02    0.491613         1.92509         4.14998         1.92509        0.491613        8.157637E-02    7.982679E-03
         4.626196E-04    1.688294E-05    4.158373E-07    7.347932E-09    9.786877E-11    1.014722E-12    8.061601E-15    3.463435E-17   -7.426786E-19   -3.837311E-20
        -1.288680E-21
  19    -1.097467E-22   -3.627195E-21   -9.801940E-20   -7.271564E-19    2.535086E-16    3.914355E-14    4.154117E-12    3.393070E-10    2.114738E-08    9.693423E-07
         3.117513E-05    6.695376E-04    9.241729E-03    8.157637E-02    0.470839         1.37888        0.470839        8.157637E-02    9.241729E-03    6.695376E-04
         3.117513E-05    9.693423E-07    2.114738E-08    3.393070E-10    4.154117E-12    3.914345E-14    2.535026E-16   -7.275576E-19   -9.803992E-20   -3.628028E-21
        -1.097753E-22
  20    -6.746391E-24   -2.462217E-22   -7.860333E-21   -1.840562E-19    2.077522E-18    9.398791E-16    1.171883E-13    1.060977E-11    7.331105E-10    3.800219E-08
         1.428481E-06    3.754444E-05    6.695376E-04    7.982679E-03    6.130054E-02    0.226481        6.130054E-02    7.982679E-03    6.695376E-04    3.754444E-05
         1.428481E-06    3.800219E-08    7.331105E-10    1.060977E-11    1.171882E-13    9.398601E-16    2.075798E-18   -1.841596E-19   -7.864858E-21   -2.463809E-22
        -6.751243E-24
  21    -2.994982E-25   -1.220664E-23   -4.455727E-22   -1.366079E-20   -2.676186E-19    1.042464E-17    2.234467E-15    2.347923E-13    1.815891E-11    1.059975E-09
         4.585230E-08    1.428481E-06    3.117513E-05    4.626196E-04    4.344765E-03    1.897846E-02    4.344765E-03    4.626196E-04    3.117513E-05    1.428481E-06
         4.585230E-08    1.059975E-09    1.815891E-11    2.347921E-13    2.234419E-15    1.041917E-17   -2.679932E-19   -1.367810E-20   -4.461987E-22   -1.222549E-23
        -3.000013E-25
  22    -9.654461E-27   -4.450950E-25   -1.859915E-23   -6.738397E-22   -1.994109E-20   -3.113194E-19    2.336308E-17    3.673346E-15    3.290117E-13    2.163571E-11
         1.059975E-09    3.800219E-08    9.693423E-07    1.688294E-05    1.832626E-04    9.056533E-04    1.832626E-04    1.688294E-05    9.693423E-07    3.800219E-08
         1.059975E-09    2.163572E-11    3.290114E-13    3.673256E-15    2.335080E-17   -3.122569E-19   -1.998714E-20   -6.755650E-22   -1.865185E-23   -4.464676E-25
        -9.686595E-27
  23    -2.278405E-28   -1.203434E-26   -5.811608E-25   -2.459318E-23   -8.853901E-22   -2.519509E-20   -3.117141E-19    3.371473E-17    4.320628E-15    3.290117E-13
         1.815891E-11    7.331105E-10    2.114738E-08    4.158373E-07    5.032741E-06    2.735432E-05    5.032741E-06    4.158373E-07    2.114738E-08    7.331105E-10
         1.815891E-11    3.290114E-13    4.320511E-15    3.369606E-17   -3.133462E-19   -2.528246E-20   -8.888497E-22   -2.470200E-23   -5.840098E-25   -1.209882E-26
        -2.291645E-28
  24    -3.942899E-30   -2.421116E-28   -1.369493E-26   -6.825981E-25   -2.914384E-23   -1.034172E-21   -2.814781E-20   -3.041407E-19    3.371549E-17    3.673353E-15
         2.347923E-13    1.060977E-11    3.393070E-10    7.347932E-09    9.688654E-08    5.684401E-07    9.688654E-08    7.347932E-09    3.393070E-10    1.060977E-11
         2.347921E-13    3.673256E-15    3.369606E-17   -3.061484E-19   -2.826926E-20   -1.039404E-21   -2.931715E-23   -6.872370E-25   -1.379935E-26   -2.441590E-28
        -3.979547E-30
  25    -4.955024E-32   -3.607449E-30   -2.436701E-28   -1.454152E-26   -7.423230E-25   -3.156616E-23   -1.087472E-21   -2.814373E-20   -3.115909E-19    2.336458E-17
         2.234473E-15    1.171883E-13    4.154117E-12    9.786877E-11    1.385889E-09    8.665301E-09    1.385889E-09    9.786877E-11    4.154117E-12    1.171882E-13
         2.234419E-15    2.335080E-17   -3.133462E-19   -2.826926E-20   -1.093582E-21   -3.178601E-23   -7.484883E-25   -1.468199E-26   -2.463680E-28   -3.652751E-30
        -5.024856E-32
  26    -4.403904E-34   -3.918211E-32   -3.257373E-30   -2.387480E-28   -1.484628E-26   -7.615332E-25   -3.156009E-23   -1.033849E-21   -2.518607E-20   -3.111765E-19
         1.042572E-17    9.398823E-16    3.914356E-14    1.014722E-12    1.538489E-11    1.017689E-10    1.538489E-11    1.014722E-12    3.914345E-14    9.398601E-16
         1.041917E-17   -3.122569E-19   -2.528246E-20   -1.039404E-21   -3.178601E-23   -7.684028E-25   -1.500924E-26   -2.418759E-28   -3.307755E-30   -3.989120E-32
        -4.496139E-34
  27    -2.618000E-36   -3.001808E-34   -3.233177E-32   -3.030090E-30   -2.359230E-28   -1.484252E-26   -7.420085E-25   -2.912912E-23   -8.849542E-22   -1.993308E-20
        -2.675351E-19    2.077942E-18    2.535097E-16    8.061627E-15    1.348610E-13    9.489411E-13    1.348609E-13    8.061601E-15    2.535026E-16    2.075798E-18
        -2.679932E-19   -1.998714E-20   -8.888497E-22   -2.931715E-23   -7.484883E-25   -1.500924E-26   -2.392382E-28   -3.082665E-30   -3.302116E-32   -3.080271E-34
        -2.701377E-36
  28    -9.176261E-39   -1.520272E-36   -2.337769E-34   -2.990403E-32   -3.029056E-30   -2.386134E-28   -1.453155E-26   -6.821126E-25   -2.457743E-23   -6.735098E-22
        -1.365665E-20   -1.840283E-19   -7.270614E-19    3.463579E-17    8.571714E-16    6.798807E-15    8.571688E-16    3.463435E-17   -7.275576E-19   -1.841596E-19
        -1.367810E-20   -6.755650E-22   -2.470200E-23   -6.872370E-25   -1.468199E-26   -2.418759E-28   -3.082665E-30   -3.058704E-32   -2.407438E-34   -1.580641E-36
        -9.672167E-39
  29    -1.225460E-41   -4.397281E-39   -1.203636E-36   -2.336570E-34   -3.230624E-32   -3.254329E-30   -2.434319E-28   -1.368225E-26   -5.807030E-25   -1.858832E-23
        -4.454153E-22   -7.859056E-21   -9.801409E-20   -7.425983E-19   -9.056187E-19    2.088088E-17   -9.057582E-19   -7.426786E-19   -9.803992E-20   -7.864858E-21
        -4.461987E-22   -1.865185E-23   -5.840098E-25   -1.379935E-26   -2.463680E-28   -3.307755E-30   -3.302116E-32   -2.407438E-34   -1.256404E-36   -4.710161E-39
        -1.403585E-41
  30     1.707787E-44   -3.965340E-42   -4.392225E-39   -1.518269E-36   -2.997668E-34   -3.912825E-32   -3.602760E-30   -2.418329E-28   -1.202310E-26   -4.447963E-25
        -1.220170E-23   -2.461754E-22   -3.626970E-21   -3.836956E-20   -2.556750E-19   -9.651883E-19   -2.556811E-19   -3.837311E-20   -3.628028E-21   -2.463809E-22
        -1.222549E-23   -4.464676E-25   -1.209882E-26   -2.441590E-28   -3.652751E-30   -3.989120E-32   -3.080271E-34   -1.580641E-36   -4.710161E-39   -5.037875E-42
         1.391769E-44
  31      0.00000        1.713919E-44   -1.219531E-41   -9.151983E-39   -2.612349E-36   -4.395566E-34   -4.946826E-32   -3.937425E-30   -2.275934E-28   -9.647117E-27
        -2.993619E-25   -6.744940E-24   -1.097387E-22   -1.288547E-21   -1.015219E-20   -4.981176E-20   -1.015243E-20   -1.288680E-21   -1.097753E-22   -6.751243E-24
        -3.000013E-25   -9.686595E-27   -2.291645E-28   -3.979547E-30   -5.024856E-32   -4.496139E-34   -2.701377E-36   -9.672167E-39   -1.403585E-41    1.391769E-44
          0.00000    

 CONCENTRATION WILL BE SAVED ON UNIT 1030 AT END OF TIME STEP   75, STRESS PERIOD    2


  MASS BUDGET FOR ENTIRE MODEL AT END OF TIME STEP   75, STRESS PERIOD   2
  ---------------------------------------------------------------------------------------------------

     CUMULATIVE MASS      M       RATES FOR THIS TIME STEP      M/T          PACKAGE NAME    
     ------------------                 ------------------------                     ----------------

           IN:                                      IN:
           ---                                      ---
     STORAGE-AQUEOUS =  7300310162.4644       STORAGE-AQUEOUS =      794308.1118     MST                              
                 WEL =  7884000000.0000                   WEL =           0.0000     SSM_WEL-1                        
                 CHD =           0.0000                   CHD =           0.0000     SSM_CHD-1                        

            TOTAL IN = 15184310162.4644              TOTAL IN =      794308.1118

          OUT:                                     OUT:
          ----                                     ----
     STORAGE-AQUEOUS =  7888716368.0246       STORAGE-AQUEOUS =          12.2981     MST                              
                 WEL =  7295593794.4399                   WEL =      794295.8137     SSM_WEL-1                        
                 CHD =       7.5562E-18                   CHD =           0.0000     SSM_CHD-1                        

           TOTAL OUT = 15184310162.4645             TOTAL OUT =      794308.1118

            IN - OUT =      -1.1444E-04              IN - OUT =      -2.5262E-08

 PERCENT DISCREPANCY =          -0.00     PERCENT DISCREPANCY =          -0.00




         TIME SUMMARY AT END OF TIME STEP   75 IN STRESS PERIOD    2
                    SECONDS     MINUTES      HOURS       DAYS        YEARS
                    -----------------------------------------------------------
   TIME STEP LENGTH 2.16991E+06  36165.      602.75      25.115     6.87602E-02
 STRESS PERIOD TIME 1.62743E+08 2.71239E+06  45206.      1883.6      5.1570    
         TOTAL TIME 2.41583E+08 4.02639E+06  67106.      2796.1      7.6553    


end timestep


start timestep kper="2" kstp="76" mode="normal"

 UBDSV1 SAVING  STORAGE-AQUEOUS ON UNIT   1029 AT TIME STEP     76, STRESS PERIOD      2
 UBDSV1 SAVING     FLOW-JA-FACE ON UNIT   1029 AT TIME STEP     76, STRESS PERIOD      2
 UBDSV06 SAVING  SOURCE-SINK MIX IN MODEL GWT_P06-MF6      PACKAGE GWT_P06-MF6     CONNECTED TO MODEL GWT_P06-MF6      PACKAGE SSM              ON UNIT   1029 AT TIME STEP     76, STRESS PERIOD      2
1
  CONCENTRATION IN LAYER   1 AT END OF TIME STEP  76 IN STRESS PERIOD    2
  ---------------------------------------------------------------------------

                1               2               3               4               5               6               7               8               9              10
               11              12              13              14              15              16              17              18              19              20
               21              22              23              24              25              26              27              28              29              30
               31
 ................................................................................................................................................................................................................................................................................................................................................................................................................................................................................................................
   1      0.00000        1.246104E-44   -1.586157E-41   -1.042671E-38   -2.870511E-36   -4.737206E-34   -5.259954E-32   -4.142384E-30   -2.373174E-28   -9.983197E-27
        -3.078234E-25   -6.900235E-24   -1.118184E-22   -1.308011E-21   -1.026075E-20   -5.002966E-20   -1.026054E-20   -1.307900E-21   -1.117894E-22   -6.895314E-24
        -3.073114E-25   -9.950370E-27   -2.359593E-28   -4.104630E-30   -5.187696E-32   -4.641338E-34   -2.783451E-36   -9.906387E-39   -1.398256E-41    1.581667E-44
          0.00000    
   2     1.246104E-44   -5.941700E-42   -5.099766E-39   -1.680361E-36   -3.244496E-34   -4.174524E-32   -3.801848E-30   -2.528812E-28   -1.247345E-26   -4.582865E-25
        -1.249763E-23   -2.508841E-22   -3.678624E-21   -3.865358E-20   -2.545309E-19   -9.432420E-19   -2.545254E-19   -3.865059E-20   -3.677784E-21   -2.507232E-22
        -1.247850E-23   -4.568890E-25   -1.240754E-26   -2.507801E-28   -3.755165E-30   -4.101162E-32   -3.162989E-34   -1.617388E-36   -4.771900E-39   -4.811495E-42
         1.588228E-44
   3    -1.586157E-41   -5.099766E-39   -1.336066E-36   -2.535239E-34   -3.454367E-32   -3.441825E-30   -2.551424E-28   -1.422779E-26   -5.996062E-25   -1.907140E-23
        -4.542745E-22   -7.960733E-21   -9.802010E-20   -7.131728E-19   -3.069631E-19    2.511631E-17   -3.068388E-19   -7.131049E-19   -9.799947E-20   -7.956173E-21
        -4.536415E-22   -1.901792E-23   -5.967038E-25   -1.412101E-26   -2.523726E-28   -3.389907E-30   -3.383059E-32   -2.462899E-34   -1.281044E-36   -4.766569E-39
        -1.391960E-41
   4    -1.042671E-38   -1.680361E-36   -2.535239E-34   -3.199205E-32   -3.206859E-30   -2.504423E-28   -1.513660E-26   -7.056219E-25   -2.526012E-23   -6.876179E-22
        -1.381125E-20   -1.814191E-19   -5.280882E-19    4.016838E-17    9.420831E-16    7.355249E-15    9.420855E-16    4.016962E-17   -5.276857E-19   -1.813153E-19
        -1.379382E-20   -6.858731E-22   -2.514965E-23   -7.008942E-25   -1.499291E-26   -2.472308E-28   -3.152684E-30   -3.128565E-32   -2.461649E-34   -1.615290E-36
        -9.880776E-39
   5    -2.870511E-36   -3.244496E-34   -3.454367E-32   -3.206859E-30   -2.476890E-28   -1.547256E-26   -7.684817E-25   -2.997917E-23   -9.043682E-22   -2.012048E-20
        -2.572558E-19    2.833095E-18    2.819845E-16    8.750214E-15    1.445785E-13    1.008433E-12    1.445785E-13    8.750237E-15    2.819906E-16    2.834810E-18
        -2.568801E-19   -2.007410E-20   -9.008687E-22   -2.980317E-23   -7.621968E-25   -1.530583E-26   -2.442850E-28   -3.151616E-30   -3.380411E-32   -3.158673E-34
        -2.777526E-36
   6    -4.737206E-34   -4.174524E-32   -3.441825E-30   -2.504423E-28   -1.547256E-26   -7.889075E-25   -3.250248E-23   -1.057180E-21   -2.537543E-20   -2.876698E-19
         1.234584E-17    1.032979E-15    4.224498E-14    1.082960E-12    1.627686E-11    1.068497E-10    1.627686E-11    1.082961E-12    4.224507E-14    1.032998E-15
         1.235128E-17   -2.867301E-19   -2.528741E-20   -1.051886E-21   -3.227918E-23   -7.819040E-25   -1.530198E-26   -2.470924E-28   -3.386764E-30   -4.095575E-32
        -4.632644E-34
   7    -5.259954E-32   -3.801848E-30   -2.551424E-28   -1.513660E-26   -7.684817E-25   -3.250248E-23   -1.112125E-21   -2.831988E-20   -2.742884E-19    2.685161E-17
         2.442227E-15    1.260434E-13    4.419202E-12    1.031672E-10    1.449127E-09    8.993550E-09    1.449127E-09    1.031672E-10    4.419203E-12    1.260436E-13
         2.442274E-15    2.686379E-17   -2.726529E-19   -2.819751E-20   -1.105943E-21   -3.227301E-23   -7.618759E-25   -1.498269E-26   -2.521277E-28   -3.750324E-30
        -5.179194E-32
   8    -4.142384E-30   -2.528812E-28   -1.422779E-26   -7.056219E-25   -2.997917E-23   -1.057180E-21   -2.831988E-20   -2.607868E-19    3.838062E-17    4.004160E-15
         2.520089E-13    1.126027E-11    3.566041E-10    7.654349E-09    1.001204E-07    5.831080E-07    1.001204E-07    7.654349E-09    3.566041E-10    1.126027E-11
         2.520091E-13    4.004250E-15    3.839913E-17   -2.587750E-19   -2.819340E-20   -1.051560E-21   -2.978820E-23   -7.003990E-25   -1.410802E-26   -2.504936E-28
        -4.098982E-30
   9    -2.373174E-28   -1.247345E-26   -5.996062E-25   -2.526012E-23   -9.043682E-22   -2.537543E-20   -2.742884E-19    3.838062E-17    4.705915E-15    3.527811E-13
         1.924396E-11    7.687843E-10    2.196049E-08    4.279802E-07    5.138494E-06    2.772791E-05    5.138494E-06    4.279802E-07    2.196049E-08    7.687843E-10
         1.924396E-11    3.527814E-13    4.706031E-15    3.839988E-17   -2.725295E-19   -2.527832E-20   -9.004277E-22   -2.513365E-23   -5.962372E-25   -1.239604E-26
        -2.357055E-28
  10    -9.983197E-27   -4.582865E-25   -1.907140E-23   -6.876179E-22   -2.012048E-20   -2.876698E-19    2.685161E-17    4.004160E-15    3.527811E-13    2.291706E-11
         1.110244E-09    3.937995E-08    9.944182E-07    1.716313E-05    1.848379E-04    9.070686E-04    1.848379E-04    1.716313E-05    9.944182E-07    3.937995E-08
         1.110244E-09    2.291706E-11    3.527814E-13    4.004256E-15    2.686528E-17   -2.865869E-19   -2.006603E-20   -6.855394E-22   -1.900693E-23   -4.565847E-25
        -9.942865E-27
  11    -3.078234E-25   -1.249763E-23   -4.542745E-22   -1.381125E-20   -2.572558E-19    1.234584E-17    2.442227E-15    2.520089E-13    1.924396E-11    1.110244E-09
         4.747908E-08    1.462732E-06    3.159063E-05    4.644867E-04    4.328861E-03    1.878518E-02    4.328861E-03    4.644867E-04    3.159063E-05    1.462732E-06
         4.747908E-08    1.110244E-09    1.924395E-11    2.520091E-13    2.442280E-15    1.235234E-17   -2.567964E-19   -1.378965E-20   -4.534824E-22   -1.247350E-23
        -3.071727E-25
  12    -6.900235E-24   -2.508841E-22   -7.960733E-21   -1.814191E-19    2.833095E-18    1.032979E-15    1.260434E-13    1.126027E-11    7.687843E-10    3.937995E-08
         1.462732E-06    3.799878E-05    6.703153E-04    7.918151E-03    6.036697E-02    0.221752        6.036697E-02    7.918151E-03    6.703153E-04    3.799878E-05
         1.462732E-06    3.937995E-08    7.687843E-10    1.126027E-11    1.260436E-13    1.033001E-15    2.835227E-18   -1.812874E-19   -7.954887E-21   -2.506763E-22
        -6.893843E-24
  13    -1.118184E-22   -3.678624E-21   -9.802010E-20   -5.280882E-19    2.819845E-16    4.224498E-14    4.419202E-12    3.566041E-10    2.196049E-08    9.944182E-07
         3.159063E-05    6.703153E-04    9.149935E-03    8.003543E-02    0.459081         1.33877        0.459081        8.003543E-02    9.149935E-03    6.703153E-04
         3.159063E-05    9.944182E-07    2.196049E-08    3.566041E-10    4.419203E-12    4.224508E-14    2.819917E-16   -5.275906E-19   -9.799413E-20   -3.677557E-21
        -1.117813E-22
  14    -1.308011E-21   -3.865358E-20   -7.131728E-19    4.016838E-17    8.750214E-15    1.082960E-12    1.031672E-10    7.654349E-09    4.279802E-07    1.716313E-05
         4.644867E-04    7.918151E-03    8.003543E-02    0.478366         1.86481         4.01140         1.86481        0.478366        8.003543E-02    7.918151E-03
         4.644867E-04    1.716313E-05    4.279802E-07    7.654349E-09    1.031672E-10    1.082961E-12    8.750240E-15    4.016983E-17   -7.130921E-19   -3.865000E-20
        -1.307877E-21
  15    -1.026075E-20   -2.545309E-19   -3.069631E-19    9.420831E-16    1.445785E-13    1.627686E-11    1.449127E-09    1.001204E-07    5.138494E-06    1.848379E-04
         4.328861E-03    6.036697E-02    0.459081         1.86481         5.00196         6.84098         5.00196         1.86481        0.459081        6.036697E-02
         4.328861E-03    1.848379E-04    5.138494E-06    1.001204E-07    1.449127E-09    1.627686E-11    1.445785E-13    9.420858E-16   -3.068229E-19   -2.545247E-19
        -1.026051E-20
  16    -5.002966E-20   -9.432420E-19    2.511631E-17    7.355249E-15    1.008433E-12    1.068497E-10    8.993550E-09    5.831080E-07    2.772791E-05    9.070686E-04
         1.878518E-02    0.221752         1.33877         4.01140         6.84098         8.86917         6.84098         4.01140         1.33877        0.221752    
         1.878518E-02    9.070686E-04    2.772791E-05    5.831080E-07    8.993550E-09    1.068497E-10    1.008433E-12    7.355249E-15    2.511631E-17   -9.432420E-19
        -5.002966E-20
  17    -1.026054E-20   -2.545254E-19   -3.068388E-19    9.420855E-16    1.445785E-13    1.627686E-11    1.449127E-09    1.001204E-07    5.138494E-06    1.848379E-04
         4.328861E-03    6.036697E-02    0.459081         1.86481         5.00196         6.84098         5.00196         1.86481        0.459081        6.036697E-02
         4.328861E-03    1.848379E-04    5.138494E-06    1.001204E-07    1.449127E-09    1.627686E-11    1.445785E-13    9.420831E-16   -3.069630E-19   -2.545309E-19
        -1.026075E-20
  18    -1.307900E-21   -3.865059E-20   -7.131049E-19    4.016962E-17    8.750237E-15    1.082961E-12    1.031672E-10    7.654349E-09    4.279802E-07    1.716313E-05
         4.644867E-04    7.918151E-03    8.003543E-02    0.478366         1.86481         4.01140         1.86481        0.478366        8.003543E-02    7.918151E-03
         4.644867E-04    1.716313E-05    4.279802E-07    7.654349E-09    1.031672E-10    1.082960E-12    8.750215E-15    4.016838E-17   -7.131728E-19   -3.865358E-20
        -1.308011E-21
  19    -1.117894E-22   -3.677784E-21   -9.799947E-20   -5.276857E-19    2.819906E-16    4.224507E-14    4.419203E-12    3.566041E-10    2.196049E-08    9.944182E-07
         3.159063E-05    6.703153E-04    9.149935E-03    8.003543E-02    0.459081         1.33877        0.459081        8.003543E-02    9.149935E-03    6.703153E-04
         3.159063E-05    9.944182E-07    2.196049E-08    3.566041E-10    4.419202E-12    4.224498E-14    2.819845E-16   -5.280882E-19   -9.802010E-20   -3.678624E-21
        -1.118184E-22
  20    -6.895314E-24   -2.507232E-22   -7.956173E-21   -1.813153E-19    2.834810E-18    1.032998E-15    1.260436E-13    1.126027E-11    7.687843E-10    3.937995E-08
         1.462732E-06    3.799878E-05    6.703153E-04    7.918151E-03    6.036697E-02    0.221752        6.036697E-02    7.918151E-03    6.703153E-04    3.799878E-05
         1.462732E-06    3.937995E-08    7.687843E-10    1.126027E-11    1.260434E-13    1.032979E-15    2.833095E-18   -1.814191E-19   -7.960733E-21   -2.508841E-22
        -6.900235E-24
  21    -3.073114E-25   -1.247850E-23   -4.536415E-22   -1.379382E-20   -2.568801E-19    1.235128E-17    2.442274E-15    2.520091E-13    1.924396E-11    1.110244E-09
         4.747908E-08    1.462732E-06    3.159063E-05    4.644867E-04    4.328861E-03    1.878518E-02    4.328861E-03    4.644867E-04    3.159063E-05    1.462732E-06
         4.747908E-08    1.110244E-09    1.924396E-11    2.520089E-13    2.442227E-15    1.234584E-17   -2.572558E-19   -1.381125E-20   -4.542745E-22   -1.249763E-23
        -3.078234E-25
  22    -9.950370E-27   -4.568890E-25   -1.901792E-23   -6.858731E-22   -2.007410E-20   -2.867301E-19    2.686379E-17    4.004250E-15    3.527814E-13    2.291706E-11
         1.110244E-09    3.937995E-08    9.944182E-07    1.716313E-05    1.848379E-04    9.070686E-04    1.848379E-04    1.716313E-05    9.944182E-07    3.937995E-08
         1.110244E-09    2.291706E-11    3.527811E-13    4.004160E-15    2.685161E-17   -2.876698E-19   -2.012048E-20   -6.876179E-22   -1.907140E-23   -4.582865E-25
        -9.983197E-27
  23    -2.359593E-28   -1.240754E-26   -5.967038E-25   -2.514965E-23   -9.008687E-22   -2.528741E-20   -2.726529E-19    3.839913E-17    4.706031E-15    3.527814E-13
         1.924395E-11    7.687843E-10    2.196049E-08    4.279802E-07    5.138494E-06    2.772791E-05    5.138494E-06    4.279802E-07    2.196049E-08    7.687843E-10
         1.924396E-11    3.527811E-13    4.705915E-15    3.838062E-17   -2.742884E-19   -2.537543E-20   -9.043682E-22   -2.526012E-23   -5.996062E-25   -1.247345E-26
        -2.373174E-28
  24    -4.104630E-30   -2.507801E-28   -1.412101E-26   -7.008942E-25   -2.980317E-23   -1.051886E-21   -2.819751E-20   -2.587750E-19    3.839988E-17    4.004256E-15
         2.520091E-13    1.126027E-11    3.566041E-10    7.654349E-09    1.001204E-07    5.831080E-07    1.001204E-07    7.654349E-09    3.566041E-10    1.126027E-11
         2.520089E-13    4.004160E-15    3.838062E-17   -2.607868E-19   -2.831988E-20   -1.057180E-21   -2.997917E-23   -7.056219E-25   -1.422779E-26   -2.528812E-28
        -4.142384E-30
  25    -5.187696E-32   -3.755165E-30   -2.523726E-28   -1.499291E-26   -7.621968E-25   -3.227918E-23   -1.105943E-21   -2.819340E-20   -2.725295E-19    2.686528E-17
         2.442280E-15    1.260436E-13    4.419203E-12    1.031672E-10    1.449127E-09    8.993550E-09    1.449127E-09    1.031672E-10    4.419202E-12    1.260434E-13
         2.442227E-15    2.685161E-17   -2.742884E-19   -2.831988E-20   -1.112125E-21   -3.250248E-23   -7.684817E-25   -1.513660E-26   -2.551424E-28   -3.801848E-30
        -5.259954E-32
  26    -4.641338E-34   -4.101162E-32   -3.389907E-30   -2.472308E-28   -1.530583E-26   -7.819040E-25   -3.227301E-23   -1.051560E-21   -2.527832E-20   -2.865869E-19
         1.235234E-17    1.033001E-15    4.224508E-14    1.082961E-12    1.627686E-11    1.068497E-10    1.627686E-11    1.082960E-12    4.224498E-14    1.032979E-15
         1.234584E-17   -2.876698E-19   -2.537543E-20   -1.057180E-21   -3.250248E-23   -7.889075E-25   -1.547256E-26   -2.504423E-28   -3.441825E-30   -4.174524E-32
        -4.737206E-34
  27    -2.783451E-36   -3.162989E-34   -3.383059E-32   -3.152684E-30   -2.442850E-28   -1.530198E-26   -7.618759E-25   -2.978820E-23   -9.004277E-22   -2.006603E-20
        -2.567964E-19    2.835227E-18    2.819917E-16    8.750240E-15    1.445785E-13    1.008433E-12    1.445785E-13    8.750215E-15    2.819845E-16    2.833095E-18
        -2.572558E-19   -2.012048E-20   -9.043682E-22   -2.997917E-23   -7.684817E-25   -1.547256E-26   -2.476890E-28   -3.206859E-30   -3.454367E-32   -3.244496E-34
        -2.870511E-36
  28    -9.906387E-39   -1.617388E-36   -2.462899E-34   -3.128565E-32   -3.151616E-30   -2.470924E-28   -1.498269E-26   -7.003990E-25   -2.513365E-23   -6.855394E-22
        -1.378965E-20   -1.812874E-19   -5.275906E-19    4.016983E-17    9.420858E-16    7.355249E-15    9.420831E-16    4.016838E-17   -5.280882E-19   -1.814191E-19
        -1.381125E-20   -6.876179E-22   -2.526012E-23   -7.056219E-25   -1.513660E-26   -2.504423E-28   -3.206859E-30   -3.199205E-32   -2.535239E-34   -1.680361E-36
        -1.042671E-38
  29    -1.398256E-41   -4.771900E-39   -1.281044E-36   -2.461649E-34   -3.380411E-32   -3.386764E-30   -2.521277E-28   -1.410802E-26   -5.962372E-25   -1.900693E-23
        -4.534824E-22   -7.954887E-21   -9.799413E-20   -7.130921E-19   -3.068229E-19    2.511631E-17   -3.069630E-19   -7.131728E-19   -9.802010E-20   -7.960733E-21
        -4.542745E-22   -1.907140E-23   -5.996062E-25   -1.422779E-26   -2.551424E-28   -3.441825E-30   -3.454367E-32   -2.535239E-34   -1.336065E-36   -5.099766E-39
        -1.586157E-41
  30     1.581667E-44   -4.811495E-42   -4.766569E-39   -1.615290E-36   -3.158673E-34   -4.095575E-32   -3.750324E-30   -2.504936E-28   -1.239604E-26   -4.565847E-25
        -1.247350E-23   -2.506763E-22   -3.677557E-21   -3.865000E-20   -2.545247E-19   -9.432420E-19   -2.545309E-19   -3.865358E-20   -3.678624E-21   -2.508841E-22
        -1.249763E-23   -4.582865E-25   -1.247345E-26   -2.528812E-28   -3.801848E-30   -4.174524E-32   -3.244496E-34   -1.680361E-36   -5.099766E-39   -5.941699E-42
         1.246104E-44
  31      0.00000        1.588228E-44   -1.391960E-41   -9.880776E-39   -2.777526E-36   -4.632644E-34   -5.179194E-32   -4.098982E-30   -2.357055E-28   -9.942865E-27
        -3.071727E-25   -6.893843E-24   -1.117813E-22   -1.307877E-21   -1.026051E-20   -5.002966E-20   -1.026075E-20   -1.308011E-21   -1.118184E-22   -6.900235E-24
        -3.078234E-25   -9.983197E-27   -2.373174E-28   -4.142384E-30   -5.259954E-32   -4.737206E-34   -2.870511E-36   -1.042671E-38   -1.586157E-41    1.246104E-44
          0.00000    

 CONCENTRATION WILL BE SAVED ON UNIT 1030 AT END OF TIME STEP   76, STRESS PERIOD    2


  MASS BUDGET FOR ENTIRE MODEL AT END OF TIME STEP   76, STRESS PERIOD   2
  ---------------------------------------------------------------------------------------------------

     CUMULATIVE MASS      M       RATES FOR THIS TIME STEP      M/T          PACKAGE NAME    
     ------------------                 ------------------------                     ----------------

           IN:                                      IN:
           ---                                      ---
     STORAGE-AQUEOUS =  7319555730.4024       STORAGE-AQUEOUS =      766307.5453     MST                              
                 WEL =  7884000000.0000                   WEL =           0.0000     SSM_WEL-1                        
                 CHD =           0.0000                   CHD =           0.0000     SSM_CHD-1                        

            TOTAL IN = 15203555730.4024              TOTAL IN =      766307.5453

          OUT:                                     OUT:
          ----                                     ----
     STORAGE-AQUEOUS =  7888716650.5646       STORAGE-AQUEOUS =          11.2500     MST                              
                 WEL =  7314839079.8380                   WEL =      766296.2953     SSM_WEL-1                        
                 CHD =       7.5562E-18                   CHD =           0.0000     SSM_CHD-1                        

           TOTAL OUT = 15203555730.4025             TOTAL OUT =      766307.5453

            IN - OUT =      -1.1826E-04              IN - OUT =      -2.1257E-07

 PERCENT DISCREPANCY =          -0.00     PERCENT DISCREPANCY =          -0.00




         TIME SUMMARY AT END OF TIME STEP   76 IN STRESS PERIOD    2
                    SECONDS     MINUTES      HOURS       DAYS        YEARS
                    -----------------------------------------------------------
   TIME STEP LENGTH 2.16991E+06  36165.      602.75      25.115     6.87602E-02
 STRESS PERIOD TIME 1.64913E+08 2.74855E+06  45809.      1908.7      5.2258    
         TOTAL TIME 2.43753E+08 4.06255E+06  67709.      2821.2      7.7241    


end timestep


start timestep kper="2" kstp="77" mode="normal"

 UBDSV1 SAVING  STORAGE-AQUEOUS ON UNIT   1029 AT TIME STEP     77, STRESS PERIOD      2
 UBDSV1 SAVING     FLOW-JA-FACE ON UNIT   1029 AT TIME STEP     77, STRESS PERIOD      2
 UBDSV06 SAVING  SOURCE-SINK MIX IN MODEL GWT_P06-MF6      PACKAGE GWT_P06-MF6     CONNECTED TO MODEL GWT_P06-MF6      PACKAGE SSM              ON UNIT   1029 AT TIME STEP     77, STRESS PERIOD      2
1
  CONCENTRATION IN LAYER   1 AT END OF TIME STEP  77 IN STRESS PERIOD    2
  ---------------------------------------------------------------------------

                1               2               3               4               5               6               7               8               9              10
               11              12              13              14              15              16              17              18              19              20
               21              22              23              24              25              26              27              28              29              30
               31
 ................................................................................................................................................................................................................................................................................................................................................................................................................................................................................................................
   1      0.00000        1.081114E-44   -1.782905E-41   -1.122788E-38   -3.048565E-36   -4.989348E-34   -5.504493E-32   -4.310903E-30   -2.457147E-28   -1.028733E-26
        -3.158113E-25   -7.051787E-24   -1.138867E-22   -1.327422E-21   -1.036753E-20   -5.023165E-20   -1.036732E-20   -1.327309E-21   -1.138573E-22   -7.046795E-24
        -3.152903E-25   -1.025380E-26   -2.443218E-28   -4.272014E-30   -5.429737E-32   -4.889724E-34   -2.957680E-36   -1.068209E-38   -1.584755E-41    1.437278E-44
          0.00000    
   2     1.081114E-44   -6.918259E-42   -5.513578E-39   -1.785309E-36   -3.416210E-34   -4.367341E-32   -3.956149E-30   -2.618668E-28   -1.285770E-26   -4.703575E-25
        -1.277432E-23   -2.554330E-22   -3.728913E-21   -3.891181E-20   -2.529892E-19   -9.187385E-19   -2.529837E-19   -3.890881E-20   -3.728066E-21   -2.552703E-22
        -1.275492E-23   -4.689346E-25   -1.279033E-26   -2.597105E-28   -3.908052E-30   -4.291451E-32   -3.331557E-34   -1.719633E-36   -5.170087E-39   -5.727642E-42
         1.444295E-44
   3    -1.782905E-41   -5.513578E-39   -1.419892E-36   -2.668833E-34   -3.612666E-32   -3.580560E-30   -2.641817E-28   -1.466730E-26   -6.155373E-25   -1.949781E-23
        -4.624060E-22   -8.054016E-21   -9.785477E-20   -6.799370E-19    3.422186E-19    2.965857E-17    3.423429E-19   -6.798688E-19   -9.783402E-20   -8.049420E-21
        -4.617660E-22   -1.944354E-23   -6.125808E-25   -1.455811E-26   -2.613386E-28   -3.527066E-30   -3.538920E-32   -2.593733E-34   -1.362533E-36   -5.164470E-39
        -1.578072E-41
   4    -1.122788E-38   -1.785309E-36   -2.668833E-34   -3.345271E-32   -3.335358E-30   -2.592669E-28   -1.560295E-26   -7.244016E-25   -2.582708E-23   -6.997031E-22
        -1.393508E-20   -1.781041E-19   -3.082283E-19    4.613674E-17    1.032732E-15    7.944226E-15    1.032735E-15    4.613798E-17   -3.078245E-19   -1.779999E-19
        -1.391751E-20   -6.979387E-22   -2.571494E-23   -7.195838E-25   -1.545598E-26   -2.559699E-28   -3.279541E-30   -3.272222E-32   -2.592430E-34   -1.717434E-36
        -1.065508E-38
   5    -3.048565E-36   -3.416210E-34   -3.612666E-32   -3.335358E-30   -2.563941E-28   -1.594783E-26   -7.889037E-25   -3.065129E-23   -9.198569E-22   -2.023188E-20
        -2.449566E-19    3.657526E-18    3.125873E-16    9.482574E-15    1.548246E-13    1.070667E-12    1.548247E-13    9.482596E-15    3.125933E-16    3.659233E-18
        -2.445798E-19   -2.018516E-20   -9.163172E-22   -3.047257E-23   -7.824976E-25   -1.577727E-26   -2.528994E-28   -3.278438E-30   -3.536173E-32   -3.327057E-34
        -2.951468E-36
   6    -4.989348E-34   -4.367341E-32   -3.580560E-30   -2.592669E-28   -1.594783E-26   -8.098512E-25   -3.322965E-23   -1.074855E-21   -2.543090E-20   -2.599884E-19
         1.443639E-17    1.132748E-15    4.553347E-14    1.154651E-12    1.720604E-11    1.121002E-10    1.720604E-11    1.154651E-12    4.553356E-14    1.132767E-15
         1.444178E-17   -2.590466E-19   -2.534223E-20   -1.069499E-21   -3.300285E-23   -8.027120E-25   -1.577332E-26   -2.558276E-28   -3.523820E-30   -4.285656E-32
        -4.880660E-34
   7    -5.504493E-32   -3.956149E-30   -2.641817E-28   -1.560295E-26   -7.889037E-25   -3.322965E-23   -1.130536E-21   -2.832191E-20   -2.306227E-19    3.064253E-17
         2.664423E-15    1.354095E-13    4.696808E-12    1.086643E-10    1.514163E-09    9.328319E-09    1.514163E-09    1.086643E-10    4.696809E-12    1.354097E-13
         2.664470E-15    3.065460E-17   -2.289838E-19   -2.819863E-20   -1.124281E-21   -3.299659E-23   -7.821701E-25   -1.544551E-26   -2.610868E-28   -3.903054E-30
        -5.420920E-32
   8    -4.310903E-30   -2.618668E-28   -1.466730E-26   -7.244016E-25   -3.065129E-23   -1.074855E-21   -2.832191E-20   -2.101738E-19    4.344849E-17    4.357543E-15
         2.701870E-13    1.193975E-11    3.744852E-10    7.967996E-09    1.033996E-07    5.978432E-07    1.033996E-07    7.967996E-09    3.744852E-10    1.193975E-11
         2.701873E-13    4.357632E-15    4.346684E-17   -2.081582E-19   -2.819448E-20   -1.069169E-21   -3.045737E-23   -7.190787E-25   -1.454481E-26   -2.594162E-28
        -4.266187E-30
   9    -2.457147E-28   -1.285770E-26   -6.155373E-25   -2.582708E-23   -9.198569E-22   -2.543090E-20   -2.306227E-19    4.344849E-17    5.117332E-15    3.778551E-13
         2.037543E-11    8.055603E-10    2.278928E-08    4.402209E-07    5.243902E-06    2.809529E-05    5.243902E-06    4.402209E-07    2.278928E-08    8.055603E-10
         2.037543E-11    3.778553E-13    5.117446E-15    4.346758E-17   -2.288602E-19   -2.533306E-20   -9.158710E-22   -2.569868E-23   -6.121051E-25   -1.277857E-26
        -2.440613E-28
  10    -1.028733E-26   -4.703575E-25   -1.949781E-23   -6.997031E-22   -2.023188E-20   -2.599884E-19    3.064253E-17    4.357543E-15    3.778551E-13    2.425243E-11
         1.161988E-09    4.078005E-08    1.019562E-06    1.743985E-05    1.863581E-04    9.082321E-04    1.863581E-04    1.743985E-05    1.019562E-06    4.078005E-08
         1.161988E-09    2.425243E-11    3.778553E-13    4.357638E-15    3.065607E-17   -2.589031E-19   -2.017702E-20   -6.976013E-22   -1.943238E-23   -4.686247E-25
        -1.024613E-26
  11    -3.158113E-25   -1.277432E-23   -4.624060E-22   -1.393508E-20   -2.449566E-19    1.443639E-17    2.664423E-15    2.701870E-13    2.037543E-11    1.161988E-09
         4.913039E-08    1.496959E-06    3.199723E-05    4.662026E-04    4.311976E-03    1.859101E-02    4.311976E-03    4.662026E-04    3.199723E-05    1.496959E-06
         4.913039E-08    1.161988E-09    2.037543E-11    2.701872E-13    2.664476E-15    1.444284E-17   -2.444959E-19   -1.391331E-20   -4.616052E-22   -1.274984E-23
        -3.151492E-25
  12    -7.051787E-24   -2.554330E-22   -8.054016E-21   -1.781041E-19    3.657526E-18    1.132748E-15    1.354095E-13    1.193975E-11    8.055603E-10    4.078005E-08
         1.496959E-06    3.844144E-05    6.708750E-04    7.852497E-03    5.944103E-02    0.217116        5.944103E-02    7.852497E-03    6.708750E-04    3.844144E-05
         1.496959E-06    4.078005E-08    8.055603E-10    1.193975E-11    1.354097E-13    1.132770E-15    3.659646E-18   -1.779719E-19   -8.048125E-21   -2.552230E-22
        -7.045304E-24
  13    -1.138867E-22   -3.728913E-21   -9.785477E-20   -3.082283E-19    3.125873E-16    4.553347E-14    4.696808E-12    3.744852E-10    2.278928E-08    1.019562E-06
         3.199723E-05    6.708750E-04    9.057251E-03    7.851730E-02    0.447621         1.29992        0.447621        7.851730E-02    9.057251E-03    6.708750E-04
         3.199723E-05    1.019562E-06    2.278928E-08    3.744852E-10    4.696809E-12    4.553357E-14    3.125945E-16   -3.077293E-19   -9.782865E-20   -3.727837E-21
        -1.138492E-22
  14    -1.327422E-21   -3.891181E-20   -6.799370E-19    4.613674E-17    9.482574E-15    1.154651E-12    1.086643E-10    7.967996E-09    4.402209E-07    1.743985E-05
         4.662026E-04    7.852497E-03    7.851730E-02    0.465487         1.80657         3.87782         1.80657        0.465487        7.851730E-02    7.852497E-03
         4.662026E-04    1.743985E-05    4.402209E-07    7.967996E-09    1.086643E-10    1.154651E-12    9.482599E-15    4.613819E-17   -6.798560E-19   -3.890821E-20
        -1.327286E-21
  15    -1.036753E-20   -2.529892E-19    3.422186E-19    1.032732E-15    1.548246E-13    1.720604E-11    1.514163E-09    1.033996E-07    5.243902E-06    1.863581E-04
         4.311976E-03    5.944103E-02    0.447621         1.80657         4.83277         6.60414         4.83277         1.80657        0.447621        5.944103E-02
         4.311976E-03    1.863581E-04    5.243902E-06    1.033996E-07    1.514163E-09    1.720604E-11    1.548247E-13    1.032735E-15    3.423587E-19   -2.529830E-19
        -1.036729E-20
  16    -5.023165E-20   -9.187385E-19    2.965857E-17    7.944226E-15    1.070667E-12    1.121002E-10    9.328319E-09    5.978432E-07    2.809529E-05    9.082321E-04
         1.859101E-02    0.217116         1.29992         3.87782         6.60414         8.55721         6.60414         3.87782         1.29992        0.217116    
         1.859101E-02    9.082321E-04    2.809529E-05    5.978432E-07    9.328319E-09    1.121002E-10    1.070667E-12    7.944226E-15    2.965857E-17   -9.187385E-19
        -5.023165E-20
  17    -1.036732E-20   -2.529837E-19    3.423429E-19    1.032735E-15    1.548247E-13    1.720604E-11    1.514163E-09    1.033996E-07    5.243902E-06    1.863581E-04
         4.311976E-03    5.944103E-02    0.447621         1.80657         4.83277         6.60414         4.83277         1.80657        0.447621        5.944103E-02
         4.311976E-03    1.863581E-04    5.243902E-06    1.033996E-07    1.514163E-09    1.720604E-11    1.548246E-13    1.032732E-15    3.422187E-19   -2.529892E-19
        -1.036753E-20
  18    -1.327309E-21   -3.890881E-20   -6.798688E-19    4.613798E-17    9.482596E-15    1.154651E-12    1.086643E-10    7.967996E-09    4.402209E-07    1.743985E-05
         4.662026E-04    7.852497E-03    7.851730E-02    0.465487         1.80657         3.87782         1.80657        0.465487        7.851730E-02    7.852497E-03
         4.662026E-04    1.743985E-05    4.402209E-07    7.967996E-09    1.086643E-10    1.154651E-12    9.482574E-15    4.613674E-17   -6.799370E-19   -3.891181E-20
        -1.327422E-21
  19    -1.138573E-22   -3.728066E-21   -9.783402E-20   -3.078245E-19    3.125933E-16    4.553356E-14    4.696809E-12    3.744852E-10    2.278928E-08    1.019562E-06
         3.199723E-05    6.708750E-04    9.057251E-03    7.851730E-02    0.447621         1.29992        0.447621        7.851730E-02    9.057251E-03    6.708750E-04
         3.199723E-05    1.019562E-06    2.278928E-08    3.744852E-10    4.696808E-12    4.553347E-14    3.125873E-16   -3.082283E-19   -9.785477E-20   -3.728913E-21
        -1.138867E-22
  20    -7.046795E-24   -2.552703E-22   -8.049420E-21   -1.779999E-19    3.659233E-18    1.132767E-15    1.354097E-13    1.193975E-11    8.055603E-10    4.078005E-08
         1.496959E-06    3.844144E-05    6.708750E-04    7.852497E-03    5.944103E-02    0.217116        5.944103E-02    7.852497E-03    6.708750E-04    3.844144E-05
         1.496959E-06    4.078005E-08    8.055603E-10    1.193975E-11    1.354095E-13    1.132748E-15    3.657527E-18   -1.781041E-19   -8.054016E-21   -2.554330E-22
        -7.051787E-24
  21    -3.152903E-25   -1.275492E-23   -4.617660E-22   -1.391751E-20   -2.445798E-19    1.444178E-17    2.664470E-15    2.701873E-13    2.037543E-11    1.161988E-09
         4.913039E-08    1.496959E-06    3.199723E-05    4.662026E-04    4.311976E-03    1.859101E-02    4.311976E-03    4.662026E-04    3.199723E-05    1.496959E-06
         4.913039E-08    1.161988E-09    2.037543E-11    2.701870E-13    2.664423E-15    1.443639E-17   -2.449566E-19   -1.393508E-20   -4.624060E-22   -1.277432E-23
        -3.158113E-25
  22    -1.025380E-26   -4.689346E-25   -1.944354E-23   -6.979387E-22   -2.018516E-20   -2.590466E-19    3.065460E-17    4.357632E-15    3.778553E-13    2.425243E-11
         1.161988E-09    4.078005E-08    1.019562E-06    1.743985E-05    1.863581E-04    9.082321E-04    1.863581E-04    1.743985E-05    1.019562E-06    4.078005E-08
         1.161988E-09    2.425243E-11    3.778551E-13    4.357543E-15    3.064253E-17   -2.599884E-19   -2.023188E-20   -6.997031E-22   -1.949781E-23   -4.703575E-25
        -1.028733E-26
  23    -2.443218E-28   -1.279033E-26   -6.125808E-25   -2.571494E-23   -9.163172E-22   -2.534223E-20   -2.289838E-19    4.346684E-17    5.117446E-15    3.778553E-13
         2.037543E-11    8.055603E-10    2.278928E-08    4.402209E-07    5.243902E-06    2.809529E-05    5.243902E-06    4.402209E-07    2.278928E-08    8.055603E-10
         2.037543E-11    3.778551E-13    5.117332E-15    4.344849E-17   -2.306227E-19   -2.543090E-20   -9.198569E-22   -2.582708E-23   -6.155373E-25   -1.285770E-26
        -2.457147E-28
  24    -4.272014E-30   -2.597105E-28   -1.455811E-26   -7.195838E-25   -3.047257E-23   -1.069499E-21   -2.819863E-20   -2.081582E-19    4.346758E-17    4.357638E-15
         2.701872E-13    1.193975E-11    3.744852E-10    7.967996E-09    1.033996E-07    5.978432E-07    1.033996E-07    7.967996E-09    3.744852E-10    1.193975E-11
         2.701870E-13    4.357543E-15    4.344849E-17   -2.101738E-19   -2.832191E-20   -1.074855E-21   -3.065129E-23   -7.244016E-25   -1.466730E-26   -2.618668E-28
        -4.310903E-30
  25    -5.429737E-32   -3.908052E-30   -2.613386E-28   -1.545598E-26   -7.824976E-25   -3.300285E-23   -1.124281E-21   -2.819448E-20   -2.288602E-19    3.065607E-17
         2.664476E-15    1.354097E-13    4.696809E-12    1.086643E-10    1.514163E-09    9.328319E-09    1.514163E-09    1.086643E-10    4.696808E-12    1.354095E-13
         2.664423E-15    3.064253E-17   -2.306227E-19   -2.832191E-20   -1.130536E-21   -3.322965E-23   -7.889037E-25   -1.560295E-26   -2.641817E-28   -3.956149E-30
        -5.504493E-32
  26    -4.889724E-34   -4.291451E-32   -3.527066E-30   -2.559699E-28   -1.577727E-26   -8.027120E-25   -3.299659E-23   -1.069169E-21   -2.533306E-20   -2.589031E-19
         1.444284E-17    1.132770E-15    4.553357E-14    1.154651E-12    1.720604E-11    1.121002E-10    1.720604E-11    1.154651E-12    4.553347E-14    1.132748E-15
         1.443639E-17   -2.599884E-19   -2.543090E-20   -1.074855E-21   -3.322965E-23   -8.098512E-25   -1.594783E-26   -2.592669E-28   -3.580560E-30   -4.367341E-32
        -4.989348E-34
  27    -2.957680E-36   -3.331557E-34   -3.538920E-32   -3.279541E-30   -2.528994E-28   -1.577332E-26   -7.821701E-25   -3.045737E-23   -9.158710E-22   -2.017702E-20
        -2.444959E-19    3.659646E-18    3.125945E-16    9.482599E-15    1.548247E-13    1.070667E-12    1.548246E-13    9.482574E-15    3.125873E-16    3.657527E-18
        -2.449566E-19   -2.023188E-20   -9.198569E-22   -3.065129E-23   -7.889037E-25   -1.594783E-26   -2.563941E-28   -3.335358E-30   -3.612666E-32   -3.416210E-34
        -3.048565E-36
  28    -1.068209E-38   -1.719633E-36   -2.593733E-34   -3.272222E-32   -3.278438E-30   -2.558276E-28   -1.544551E-26   -7.190787E-25   -2.569868E-23   -6.976013E-22
        -1.391331E-20   -1.779719E-19   -3.077293E-19    4.613819E-17    1.032735E-15    7.944226E-15    1.032732E-15    4.613674E-17   -3.082283E-19   -1.781041E-19
        -1.393508E-20   -6.997031E-22   -2.582708E-23   -7.244016E-25   -1.560295E-26   -2.592669E-28   -3.335358E-30   -3.345271E-32   -2.668833E-34   -1.785309E-36
        -1.122788E-38
  29    -1.584755E-41   -5.170087E-39   -1.362533E-36   -2.592430E-34   -3.536173E-32   -3.523820E-30   -2.610868E-28   -1.454481E-26   -6.121051E-25   -1.943238E-23
        -4.616052E-22   -8.048125E-21   -9.782865E-20   -6.798560E-19    3.423587E-19    2.965857E-17    3.422187E-19   -6.799370E-19   -9.785477E-20   -8.054016E-21
        -4.624060E-22   -1.949781E-23   -6.155373E-25   -1.466730E-26   -2.641817E-28   -3.580560E-30   -3.612666E-32   -2.668833E-34   -1.419892E-36   -5.513578E-39
        -1.782905E-41
  30     1.437278E-44   -5.727642E-42   -5.164470E-39   -1.717434E-36   -3.327057E-34   -4.285656E-32   -3.903054E-30   -2.594162E-28   -1.277857E-26   -4.686247E-25
        -1.274984E-23   -2.552230E-22   -3.727837E-21   -3.890821E-20   -2.529830E-19   -9.187385E-19   -2.529892E-19   -3.891181E-20   -3.728913E-21   -2.554330E-22
        -1.277432E-23   -4.703575E-25   -1.285770E-26   -2.618668E-28   -3.956149E-30   -4.367341E-32   -3.416210E-34   -1.785309E-36   -5.513578E-39   -6.918258E-42
         1.081114E-44
  31      0.00000        1.444295E-44   -1.578072E-41   -1.065508E-38   -2.951468E-36   -4.880660E-34   -5.420920E-32   -4.266187E-30   -2.440613E-28   -1.024613E-26
        -3.151492E-25   -7.045304E-24   -1.138492E-22   -1.327286E-21   -1.036729E-20   -5.023165E-20   -1.036753E-20   -1.327422E-21   -1.138867E-22   -7.051787E-24
        -3.158113E-25   -1.028733E-26   -2.457147E-28   -4.310903E-30   -5.504493E-32   -4.989348E-34   -3.048565E-36   -1.122788E-38   -1.782905E-41    1.081114E-44
          0.00000    

 CONCENTRATION WILL BE SAVED ON UNIT 1030 AT END OF TIME STEP   77, STRESS PERIOD    2


  MASS BUDGET FOR ENTIRE MODEL AT END OF TIME STEP   77, STRESS PERIOD   2
  ---------------------------------------------------------------------------------------------------

     CUMULATIVE MASS      M       RATES FOR THIS TIME STEP      M/T          PACKAGE NAME    
     ------------------                 ------------------------                     ----------------

           IN:                                      IN:
           ---                                      ---
     STORAGE-AQUEOUS =  7338124342.3800       STORAGE-AQUEOUS =      739352.9518     MST                              
                 WEL =  7884000000.0000                   WEL =           0.0000     SSM_WEL-1                        
                 CHD =           0.0000                   CHD =           0.0000     SSM_CHD-1                        

            TOTAL IN = 15222124342.3801              TOTAL IN =      739352.9518

          OUT:                                     OUT:
          ----                                     ----
     STORAGE-AQUEOUS =  7888716907.1826       STORAGE-AQUEOUS =          10.2179     MST                              
                 WEL =  7333407435.1976                   WEL =      739342.7340     SSM_WEL-1                        
                 CHD =       7.5562E-18                   CHD =           0.0000     SSM_CHD-1                        

           TOTAL OUT = 15222124342.3802             TOTAL OUT =      739352.9518

            IN - OUT =      -1.2398E-04              IN - OUT =      -2.0489E-07

 PERCENT DISCREPANCY =          -0.00     PERCENT DISCREPANCY =          -0.00




         TIME SUMMARY AT END OF TIME STEP   77 IN STRESS PERIOD    2
                    SECONDS     MINUTES      HOURS       DAYS        YEARS
                    -----------------------------------------------------------
   TIME STEP LENGTH 2.16991E+06  36165.      602.75      25.115     6.87602E-02
 STRESS PERIOD TIME 1.67083E+08 2.78472E+06  46412.      1933.8      5.2945    
         TOTAL TIME 2.45923E+08 4.09872E+06  68312.      2846.3      7.7928    


end timestep


start timestep kper="2" kstp="78" mode="normal"

 UBDSV1 SAVING  STORAGE-AQUEOUS ON UNIT   1029 AT TIME STEP     78, STRESS PERIOD      2
 UBDSV1 SAVING     FLOW-JA-FACE ON UNIT   1029 AT TIME STEP     78, STRESS PERIOD      2
 UBDSV06 SAVING  SOURCE-SINK MIX IN MODEL GWT_P06-MF6      PACKAGE GWT_P06-MF6     CONNECTED TO MODEL GWT_P06-MF6      PACKAGE SSM              ON UNIT   1029 AT TIME STEP     78, STRESS PERIOD      2
1
  CONCENTRATION IN LAYER   1 AT END OF TIME STEP  78 IN STRESS PERIOD    2
  ---------------------------------------------------------------------------

                1               2               3               4               5               6               7               8               9              10
               11              12              13              14              15              16              17              18              19              20
               21              22              23              24              25              26              27              28              29              30
               31
 ................................................................................................................................................................................................................................................................................................................................................................................................................................................................................................................
   1      0.00000        8.953104E-45   -1.994693E-41   -1.207810E-38   -3.235942E-36   -5.253004E-34   -5.758795E-32   -4.485270E-30   -2.543626E-28   -1.059916E-26
        -3.239675E-25   -7.205917E-24   -1.159799E-22   -1.346895E-21   -1.047254E-20   -5.041623E-20   -1.047232E-20   -1.346781E-21   -1.159502E-22   -7.200854E-24
        -3.234373E-25   -1.056491E-26   -2.529340E-28   -4.445218E-30   -5.681468E-32   -5.149496E-34   -3.141085E-36   -1.150574E-38   -1.785802E-41    1.273184E-44
          0.00000    
   2     8.953104E-45   -7.972007E-42   -5.952848E-39   -1.895720E-36   -3.595708E-34   -4.567822E-32   -4.115810E-30   -2.711221E-28   -1.325177E-26   -4.826842E-25
        -1.305559E-23   -2.600254E-22   -3.778794E-21   -3.914541E-20   -2.510257E-19   -8.915026E-19   -2.510201E-19   -3.914238E-20   -3.777939E-21   -2.598609E-22
        -1.303591E-23   -4.812357E-25   -1.318291E-26   -2.689096E-28   -4.066261E-30   -4.489330E-32   -3.507801E-34   -1.827237E-36   -5.593072E-39   -6.718118E-42
         1.280683E-44
   3    -1.994693E-41   -5.952848E-39   -1.508070E-36   -2.808446E-34   -3.777220E-32   -3.724096E-30   -2.734926E-28   -1.511810E-26   -6.318076E-25   -1.993106E-23
        -4.705859E-22   -8.144297E-21   -9.753023E-20   -6.426926E-19    1.044712E-18    3.452455E-17    1.044836E-18   -6.426241E-19   -9.750935E-20   -8.139666E-21
        -4.699390E-22   -1.987599E-23   -6.287962E-25   -1.500645E-26   -2.705746E-28   -3.668986E-30   -3.700963E-32   -2.730492E-34   -1.448285E-36   -5.587155E-39
        -1.778711E-41
   4    -1.207810E-38   -1.895720E-36   -2.808446E-34   -3.497092E-32   -3.468288E-30   -2.683560E-28   -1.608129E-26   -7.435813E-25   -2.640278E-23   -7.118031E-22
        -1.404841E-20   -1.741658E-19   -6.668176E-20    5.256560E-17    1.129409E-15    8.567116E-15    1.129412E-15    5.256684E-17   -6.627871E-20   -1.740612E-19
        -1.403072E-20   -7.100190E-22   -2.628895E-23   -7.386722E-25   -1.593097E-26   -2.649717E-28   -3.410786E-30   -3.421563E-32   -2.729135E-34   -1.824934E-36
        -1.147727E-38
   5    -3.235942E-36   -3.595708E-34   -3.777220E-32   -3.468288E-30   -2.653598E-28   -1.643531E-26   -8.097597E-25   -3.133337E-23   -9.352841E-22   -2.031886E-20
        -2.309689E-19    4.553667E-18    3.454321E-16    1.026074E-14    1.656193E-13    1.135724E-12    1.656194E-13    1.026076E-14    3.454381E-16    4.555364E-18
        -2.305911E-19   -2.027180E-20   -9.317040E-22   -3.115190E-23   -8.032306E-25   -1.626084E-26   -2.617724E-28   -3.409647E-30   -3.698114E-32   -3.503112E-34
        -3.134575E-36
   6    -5.253004E-34   -4.567822E-32   -3.724096E-30   -2.683560E-28   -1.643531E-26   -8.312395E-25   -3.396729E-23   -1.092385E-21   -2.544487E-20   -2.289674E-19
         1.670160E-17    1.239528E-15    4.901706E-14    1.229907E-12    1.817329E-11    1.175227E-10    1.817329E-11    1.229908E-12    4.901715E-14    1.239547E-15
         1.670696E-17   -2.280235E-19   -2.535555E-20   -1.086968E-21   -3.373697E-23   -8.239625E-25   -1.625680E-26   -2.648254E-28   -3.665634E-30   -4.483320E-32
        -5.140049E-34
   7    -5.758795E-32   -4.115810E-30   -2.734926E-28   -1.608129E-26   -8.097597E-25   -3.396729E-23   -1.148766E-21   -2.827030E-20   -1.819888E-19    3.474221E-17
         2.901760E-15    1.453071E-13    4.987298E-12    1.143636E-10    1.581009E-09    9.669553E-09    1.581009E-09    1.143636E-10    4.987299E-12    1.453073E-13
         2.901807E-15    3.475418E-17   -1.803468E-19   -2.814611E-20   -1.142438E-21   -3.373060E-23   -8.028966E-25   -1.592025E-26   -2.703157E-28   -4.061102E-30
        -5.672326E-32
   8    -4.485270E-30   -2.711221E-28   -1.511810E-26   -7.435813E-25   -3.133337E-23   -1.092385E-21   -2.827030E-20   -1.539009E-19    4.892405E-17    4.734549E-15
         2.893633E-13    1.264894E-11    3.929574E-10    8.288849E-09    1.067230E-07    6.126389E-07    1.067230E-07    8.288849E-09    3.929574E-10    1.264894E-11
         2.893635E-13    4.734637E-15    4.894223E-17   -1.518815E-19   -2.814194E-20   -1.086634E-21   -3.113646E-23   -7.381571E-25   -1.499284E-26   -2.686072E-28
        -4.439207E-30
   9    -2.543626E-28   -1.325177E-26   -6.318076E-25   -2.640278E-23   -9.352841E-22   -2.544487E-20   -1.819888E-19    4.892405E-17    5.556072E-15    4.042817E-13
         2.155438E-11    8.434462E-10    2.363356E-08    4.525535E-07    5.348912E-06    2.845636E-05    5.348912E-06    4.525535E-07    2.363356E-08    8.434462E-10
         2.155438E-11    4.042819E-13    5.556185E-15    4.894297E-17   -1.802230E-19   -2.534632E-20   -9.312526E-22   -2.627244E-23   -6.283114E-25   -1.317088E-26
        -2.526666E-28
  10    -1.059916E-26   -4.826842E-25   -1.993106E-23   -7.118031E-22   -2.031886E-20   -2.289674E-19    3.474221E-17    4.734549E-15    4.042817E-13    2.564303E-11
         1.215211E-09    4.220198E-08    1.044759E-06    1.771299E-05    1.878234E-04    9.091490E-04    1.878234E-04    1.771299E-05    1.044759E-06    4.220198E-08
         1.215211E-09    2.564303E-11    4.042819E-13    4.734643E-15    3.475564E-17   -2.278798E-19   -2.026361E-20   -7.096778E-22   -1.986467E-23   -4.809201E-25
        -1.055708E-26
  11    -3.239675E-25   -1.305559E-23   -4.705859E-22   -1.404841E-20   -2.309689E-19    1.670160E-17    2.901760E-15    2.893633E-13    2.155438E-11    1.215211E-09
         5.080557E-08    1.531142E-06    3.239480E-05    4.677695E-04    4.294148E-03    1.839609E-02    4.294148E-03    4.677695E-04    3.239480E-05    1.531142E-06
         5.080557E-08    1.215211E-09    2.155438E-11    2.893635E-13    2.901813E-15    1.670800E-17   -2.305071E-19   -1.402649E-20   -4.697763E-22   -1.303077E-23
        -3.232938E-25
  12    -7.205917E-24   -2.600254E-22   -8.144297E-21   -1.741658E-19    4.553667E-18    1.239528E-15    1.453071E-13    1.264894E-11    8.434462E-10    4.220198E-08
         1.531142E-06    3.887228E-05    6.712215E-04    7.785796E-03    5.852300E-02    0.212570        5.852300E-02    7.785796E-03    6.712215E-04    3.887228E-05
         1.531142E-06    4.220198E-08    8.434462E-10    1.264894E-11    1.453073E-13    1.239550E-15    4.555774E-18   -1.740331E-19   -8.138361E-21   -2.598131E-22
        -7.199343E-24
  13    -1.159799E-22   -3.778794E-21   -9.753023E-20   -6.668176E-20    3.454321E-16    4.901706E-14    4.987298E-12    3.929574E-10    2.363356E-08    1.044759E-06
         3.239480E-05    6.712215E-04    8.963772E-03    7.702203E-02    0.436451         1.26227        0.436451        7.702203E-02    8.963772E-03    6.712215E-04
         3.239480E-05    1.044759E-06    2.363356E-08    3.929574E-10    4.987299E-12    4.901717E-14    3.454392E-16   -6.618395E-20   -9.750397E-20   -3.777709E-21
        -1.159419E-22
  14    -1.346895E-21   -3.914541E-20   -6.426926E-19    5.256560E-17    1.026074E-14    1.229907E-12    1.143636E-10    8.288849E-09    4.525535E-07    1.771299E-05
         4.677695E-04    7.785796E-03    7.702203E-02    0.452968         1.75028         3.74905         1.75028        0.452968        7.702203E-02    7.785796E-03
         4.677695E-04    1.771299E-05    4.525535E-07    8.288849E-09    1.143636E-10    1.229908E-12    1.026077E-14    5.256705E-17   -6.426113E-19   -3.914178E-20
        -1.346758E-21
  15    -1.047254E-20   -2.510257E-19    1.044712E-18    1.129409E-15    1.656193E-13    1.817329E-11    1.581009E-09    1.067230E-07    5.348912E-06    1.878234E-04
         4.294148E-03    5.852300E-02    0.436451         1.75028         4.66966         6.37604         4.66966         1.75028        0.436451        5.852300E-02
         4.294148E-03    1.878234E-04    5.348912E-06    1.067230E-07    1.581009E-09    1.817329E-11    1.656194E-13    1.129412E-15    1.044852E-18   -2.510194E-19
        -1.047229E-20
  16    -5.041623E-20   -8.915026E-19    3.452455E-17    8.567116E-15    1.135724E-12    1.175227E-10    9.669553E-09    6.126389E-07    2.845636E-05    9.091490E-04
         1.839609E-02    0.212570         1.26227         3.74905         6.37604         8.25688         6.37604         3.74905         1.26227        0.212570    
         1.839609E-02    9.091490E-04    2.845636E-05    6.126389E-07    9.669553E-09    1.175227E-10    1.135724E-12    8.567116E-15    3.452455E-17   -8.915027E-19
        -5.041623E-20
  17    -1.047232E-20   -2.510201E-19    1.044836E-18    1.129412E-15    1.656194E-13    1.817329E-11    1.581009E-09    1.067230E-07    5.348912E-06    1.878234E-04
         4.294148E-03    5.852300E-02    0.436451         1.75028         4.66966         6.37604         4.66966         1.75028        0.436451        5.852300E-02
         4.294148E-03    1.878234E-04    5.348912E-06    1.067230E-07    1.581009E-09    1.817329E-11    1.656193E-13    1.129409E-15    1.044712E-18   -2.510257E-19
        -1.047254E-20
  18    -1.346781E-21   -3.914238E-20   -6.426241E-19    5.256684E-17    1.026076E-14    1.229908E-12    1.143636E-10    8.288849E-09    4.525535E-07    1.771299E-05
         4.677695E-04    7.785796E-03    7.702203E-02    0.452968         1.75028         3.74905         1.75028        0.452968        7.702203E-02    7.785796E-03
         4.677695E-04    1.771299E-05    4.525535E-07    8.288849E-09    1.143636E-10    1.229907E-12    1.026074E-14    5.256560E-17   -6.426926E-19   -3.914541E-20
        -1.346895E-21
  19    -1.159502E-22   -3.777939E-21   -9.750935E-20   -6.627871E-20    3.454381E-16    4.901715E-14    4.987299E-12    3.929574E-10    2.363356E-08    1.044759E-06
         3.239480E-05    6.712215E-04    8.963772E-03    7.702203E-02    0.436451         1.26227        0.436451        7.702203E-02    8.963772E-03    6.712215E-04
         3.239480E-05    1.044759E-06    2.363356E-08    3.929574E-10    4.987298E-12    4.901706E-14    3.454321E-16   -6.668172E-20   -9.753023E-20   -3.778794E-21
        -1.159799E-22
  20    -7.200854E-24   -2.598609E-22   -8.139666E-21   -1.740612E-19    4.555364E-18    1.239547E-15    1.453073E-13    1.264894E-11    8.434462E-10    4.220198E-08
         1.531142E-06    3.887228E-05    6.712215E-04    7.785796E-03    5.852300E-02    0.212570        5.852300E-02    7.785796E-03    6.712215E-04    3.887228E-05
         1.531142E-06    4.220198E-08    8.434462E-10    1.264894E-11    1.453071E-13    1.239528E-15    4.553667E-18   -1.741658E-19   -8.144297E-21   -2.600254E-22
        -7.205917E-24
  21    -3.234373E-25   -1.303591E-23   -4.699390E-22   -1.403072E-20   -2.305911E-19    1.670696E-17    2.901807E-15    2.893635E-13    2.155438E-11    1.215211E-09
         5.080557E-08    1.531142E-06    3.239480E-05    4.677695E-04    4.294148E-03    1.839609E-02    4.294148E-03    4.677695E-04    3.239480E-05    1.531142E-06
         5.080557E-08    1.215211E-09    2.155438E-11    2.893633E-13    2.901760E-15    1.670160E-17   -2.309689E-19   -1.404841E-20   -4.705859E-22   -1.305559E-23
        -3.239675E-25
  22    -1.056491E-26   -4.812357E-25   -1.987599E-23   -7.100190E-22   -2.027180E-20   -2.280235E-19    3.475418E-17    4.734637E-15    4.042819E-13    2.564303E-11
         1.215211E-09    4.220198E-08    1.044759E-06    1.771299E-05    1.878234E-04    9.091490E-04    1.878234E-04    1.771299E-05    1.044759E-06    4.220198E-08
         1.215211E-09    2.564303E-11    4.042817E-13    4.734549E-15    3.474221E-17   -2.289674E-19   -2.031886E-20   -7.118031E-22   -1.993106E-23   -4.826842E-25
        -1.059916E-26
  23    -2.529340E-28   -1.318291E-26   -6.287962E-25   -2.628895E-23   -9.317040E-22   -2.535555E-20   -1.803468E-19    4.894223E-17    5.556185E-15    4.042819E-13
         2.155438E-11    8.434462E-10    2.363356E-08    4.525535E-07    5.348912E-06    2.845636E-05    5.348912E-06    4.525535E-07    2.363356E-08    8.434462E-10
         2.155438E-11    4.042817E-13    5.556072E-15    4.892405E-17   -1.819888E-19   -2.544487E-20   -9.352841E-22   -2.640278E-23   -6.318076E-25   -1.325177E-26
        -2.543626E-28
  24    -4.445218E-30   -2.689096E-28   -1.500645E-26   -7.386722E-25   -3.115190E-23   -1.086968E-21   -2.814611E-20   -1.518815E-19    4.894297E-17    4.734643E-15
         2.893635E-13    1.264894E-11    3.929574E-10    8.288849E-09    1.067230E-07    6.126389E-07    1.067230E-07    8.288849E-09    3.929574E-10    1.264894E-11
         2.893633E-13    4.734549E-15    4.892405E-17   -1.539009E-19   -2.827030E-20   -1.092385E-21   -3.133337E-23   -7.435813E-25   -1.511810E-26   -2.711221E-28
        -4.485270E-30
  25    -5.681468E-32   -4.066261E-30   -2.705746E-28   -1.593097E-26   -8.032306E-25   -3.373697E-23   -1.142438E-21   -2.814194E-20   -1.802230E-19    3.475564E-17
         2.901813E-15    1.453073E-13    4.987299E-12    1.143636E-10    1.581009E-09    9.669553E-09    1.581009E-09    1.143636E-10    4.987298E-12    1.453071E-13
         2.901760E-15    3.474221E-17   -1.819888E-19   -2.827030E-20   -1.148766E-21   -3.396729E-23   -8.097597E-25   -1.608129E-26   -2.734926E-28   -4.115810E-30
        -5.758795E-32
  26    -5.149496E-34   -4.489330E-32   -3.668986E-30   -2.649717E-28   -1.626084E-26   -8.239625E-25   -3.373060E-23   -1.086634E-21   -2.534632E-20   -2.278798E-19
         1.670800E-17    1.239550E-15    4.901717E-14    1.229908E-12    1.817329E-11    1.175227E-10    1.817329E-11    1.229907E-12    4.901706E-14    1.239528E-15
         1.670160E-17   -2.289674E-19   -2.544487E-20   -1.092385E-21   -3.396729E-23   -8.312395E-25   -1.643531E-26   -2.683560E-28   -3.724096E-30   -4.567822E-32
        -5.253004E-34
  27    -3.141085E-36   -3.507801E-34   -3.700963E-32   -3.410786E-30   -2.617724E-28   -1.625680E-26   -8.028966E-25   -3.113646E-23   -9.312526E-22   -2.026361E-20
        -2.305071E-19    4.555774E-18    3.454392E-16    1.026077E-14    1.656194E-13    1.135724E-12    1.656193E-13    1.026074E-14    3.454321E-16    4.553667E-18
        -2.309689E-19   -2.031886E-20   -9.352841E-22   -3.133337E-23   -8.097597E-25   -1.643531E-26   -2.653598E-28   -3.468288E-30   -3.777220E-32   -3.595708E-34
        -3.235942E-36
  28    -1.150574E-38   -1.827237E-36   -2.730492E-34   -3.421563E-32   -3.409647E-30   -2.648254E-28   -1.592025E-26   -7.381571E-25   -2.627244E-23   -7.096778E-22
        -1.402649E-20   -1.740331E-19   -6.618395E-20    5.256705E-17    1.129412E-15    8.567116E-15    1.129409E-15    5.256560E-17   -6.668172E-20   -1.741658E-19
        -1.404841E-20   -7.118031E-22   -2.640278E-23   -7.435813E-25   -1.608129E-26   -2.683560E-28   -3.468288E-30   -3.497092E-32   -2.808446E-34   -1.895720E-36
        -1.207810E-38
  29    -1.785802E-41   -5.593072E-39   -1.448285E-36   -2.729135E-34   -3.698114E-32   -3.665634E-30   -2.703157E-28   -1.499284E-26   -6.283114E-25   -1.986467E-23
        -4.697763E-22   -8.138361E-21   -9.750397E-20   -6.426113E-19    1.044852E-18    3.452455E-17    1.044712E-18   -6.426926E-19   -9.753023E-20   -8.144297E-21
        -4.705859E-22   -1.993106E-23   -6.318076E-25   -1.511810E-26   -2.734926E-28   -3.724096E-30   -3.777220E-32   -2.808446E-34   -1.508070E-36   -5.952848E-39
        -1.994693E-41
  30     1.273184E-44   -6.718118E-42   -5.587155E-39   -1.824934E-36   -3.503112E-34   -4.483320E-32   -4.061102E-30   -2.686072E-28   -1.317088E-26   -4.809201E-25
        -1.303077E-23   -2.598131E-22   -3.777709E-21   -3.914178E-20   -2.510194E-19   -8.915027E-19   -2.510257E-19   -3.914541E-20   -3.778794E-21   -2.600254E-22
        -1.305559E-23   -4.826842E-25   -1.325177E-26   -2.711221E-28   -4.115810E-30   -4.567822E-32   -3.595708E-34   -1.895720E-36   -5.952848E-39   -7.972007E-42
         8.953105E-45
  31      0.00000        1.280683E-44   -1.778711E-41   -1.147727E-38   -3.134575E-36   -5.140049E-34   -5.672326E-32   -4.439207E-30   -2.526666E-28   -1.055708E-26
        -3.232938E-25   -7.199343E-24   -1.159419E-22   -1.346758E-21   -1.047229E-20   -5.041623E-20   -1.047254E-20   -1.346895E-21   -1.159799E-22   -7.205917E-24
        -3.239675E-25   -1.059916E-26   -2.543626E-28   -4.485270E-30   -5.758795E-32   -5.253004E-34   -3.235942E-36   -1.207810E-38   -1.994693E-41    8.953105E-45
          0.00000    

 CONCENTRATION WILL BE SAVED ON UNIT 1030 AT END OF TIME STEP   78, STRESS PERIOD    2


  MASS BUDGET FOR ENTIRE MODEL AT END OF TIME STEP   78, STRESS PERIOD   2
  ---------------------------------------------------------------------------------------------------

     CUMULATIVE MASS      M       RATES FOR THIS TIME STEP      M/T          PACKAGE NAME    
     ------------------                 ------------------------                     ----------------

           IN:                                      IN:
           ---                                      ---
     STORAGE-AQUEOUS =  7356041247.3756       STORAGE-AQUEOUS =      713403.7058     MST                              
                 WEL =  7884000000.0000                   WEL =           0.0000     SSM_WEL-1                        
                 CHD =           0.0000                   CHD =           0.0000     SSM_CHD-1                        

            TOTAL IN = 15240041247.3756              TOTAL IN =      713403.7058

          OUT:                                     OUT:
          ----                                     ----
     STORAGE-AQUEOUS =  7888717138.2904       STORAGE-AQUEOUS =           9.2021     MST                              
                 WEL =  7351324109.0853                   WEL =      713394.5037     SSM_WEL-1                        
                 CHD =       7.5562E-18                   CHD =           0.0000     SSM_CHD-1                        

           TOTAL OUT = 15240041247.3757             TOTAL OUT =      713403.7058

            IN - OUT =      -1.2589E-04              IN - OUT =      -1.9802E-07

 PERCENT DISCREPANCY =          -0.00     PERCENT DISCREPANCY =          -0.00




         TIME SUMMARY AT END OF TIME STEP   78 IN STRESS PERIOD    2
                    SECONDS     MINUTES      HOURS       DAYS        YEARS
                    -----------------------------------------------------------
   TIME STEP LENGTH 2.16991E+06  36165.      602.75      25.115     6.87602E-02
 STRESS PERIOD TIME 1.69253E+08 2.82088E+06  47015.      1958.9      5.3633    
         TOTAL TIME 2.48093E+08 4.13488E+06  68915.      2871.4      7.8616    


end timestep


start timestep kper="2" kstp="79" mode="normal"

 UBDSV1 SAVING  STORAGE-AQUEOUS ON UNIT   1029 AT TIME STEP     79, STRESS PERIOD      2
 UBDSV1 SAVING     FLOW-JA-FACE ON UNIT   1029 AT TIME STEP     79, STRESS PERIOD      2
 UBDSV06 SAVING  SOURCE-SINK MIX IN MODEL GWT_P06-MF6      PACKAGE GWT_P06-MF6     CONNECTED TO MODEL GWT_P06-MF6      PACKAGE SSM              ON UNIT   1029 AT TIME STEP     79, STRESS PERIOD      2
1
  CONCENTRATION IN LAYER   1 AT END OF TIME STEP  79 IN STRESS PERIOD    2
  ---------------------------------------------------------------------------

                1               2               3               4               5               6               7               8               9              10
               11              12              13              14              15              16              17              18              19              20
               21              22              23              24              25              26              27              28              29              30
               31
 ................................................................................................................................................................................................................................................................................................................................................................................................................................................................................................................
   1      0.00000        6.871154E-45   -2.222433E-41   -1.297991E-38   -3.433060E-36   -5.528625E-34   -6.023193E-32   -4.665656E-30   -2.632671E-28   -1.091883E-26
        -3.322945E-25   -7.362644E-24   -1.180975E-22   -1.366414E-21   -1.057549E-20   -5.058178E-20   -1.057527E-20   -1.366299E-21   -1.180675E-22   -7.357509E-24
        -3.317551E-25   -1.088385E-26   -2.618022E-28   -4.624412E-30   -5.943218E-32   -5.421101E-34   -3.334079E-36   -1.237984E-38   -2.002287E-41    1.087858E-44
          0.00000    
   2     6.871154E-45   -9.107626E-42   -6.418883E-39   -2.011836E-36   -3.783294E-34   -4.776228E-32   -4.280986E-30   -2.806538E-28   -1.365584E-26   -4.952704E-25
        -1.334145E-23   -2.646590E-22   -3.828158E-21   -3.935178E-20   -2.486081E-19   -8.613501E-19   -2.486025E-19   -3.934873E-20   -3.827296E-21   -2.644926E-22
        -1.332149E-23   -4.937959E-25   -1.358548E-26   -2.783839E-28   -4.229948E-30   -4.695057E-32   -3.692023E-34   -1.940442E-36   -6.042135E-39   -7.787486E-42
         1.095870E-44
   3    -2.222433E-41   -6.418883E-39   -1.600794E-36   -2.954312E-34   -3.948242E-32   -3.872575E-30   -2.830820E-28   -1.558041E-26   -6.484219E-25   -2.037113E-23
        -4.788062E-22   -8.231136E-21   -9.703254E-20   -6.011450E-19    1.803885E-18    3.973176E-17    1.804009E-18   -6.010762E-19   -9.701154E-20   -8.226468E-21
        -4.781522E-22   -2.031525E-23   -6.453549E-25   -1.546626E-26   -2.800873E-28   -3.815806E-30   -3.869398E-32   -2.873409E-34   -1.538491E-36   -6.035903E-39
        -1.994765E-41
   4    -1.297991E-38   -2.011836E-36   -2.954312E-34   -3.654863E-32   -3.605778E-30   -2.777164E-28   -1.657185E-26   -7.631662E-25   -2.698713E-23   -7.238987E-22
        -1.415000E-20   -1.695529E-19    1.968551E-19    5.948227E-17    1.232416E-15    9.225332E-15    1.232419E-15    5.948351E-17    1.972574E-19   -1.694478E-19
        -1.413217E-20   -7.220948E-22   -2.687159E-23   -7.581645E-25   -1.641813E-26   -2.742428E-28   -3.546549E-30   -3.576779E-32   -2.871996E-34   -1.938030E-36
        -1.234984E-38
   5    -3.433060E-36   -3.783294E-34   -3.948242E-32   -3.605778E-30   -2.745928E-28   -1.693523E-26   -8.310549E-25   -3.202521E-23   -9.506154E-22   -2.037878E-20
        -2.151580E-19    5.526324E-18    3.806457E-16    1.108683E-14    1.769829E-13    1.203682E-12    1.769829E-13    1.108686E-14    3.806517E-16    5.528013E-18
        -2.147792E-19   -2.033138E-20   -9.469948E-22   -3.184097E-23   -8.244012E-25   -1.675679E-26   -2.709106E-28   -3.545373E-30   -3.866445E-32   -3.687137E-34
        -3.327258E-36
   6    -5.528625E-34   -4.776228E-32   -3.872575E-30   -2.777164E-28   -1.693523E-26   -8.530776E-25   -3.471516E-23   -1.109722E-21   -2.541306E-20   -1.943461E-19
         1.915282E-17    1.353694E-15    5.270411E-14    1.308846E-12    1.917947E-11    1.231193E-10    1.917947E-11    1.308847E-12    5.270420E-14    1.353713E-15
         1.915814E-17   -1.934003E-19   -2.532309E-20   -1.104243E-21   -3.448128E-23   -8.456609E-25   -1.675265E-26   -2.740923E-28   -3.812346E-30   -4.688826E-32
        -5.411258E-34
   7    -6.023193E-32   -4.280986E-30   -2.830820E-28   -1.657185E-26   -8.310549E-25   -3.471516E-23   -1.166761E-21   -2.815964E-20   -1.280045E-19    3.917023E-17
         3.155014E-15    1.557574E-13    5.291035E-12    1.202684E-10    1.649671E-09    1.001719E-08    1.649671E-09    1.202684E-10    5.291035E-12    1.557575E-13
         3.155061E-15    3.918209E-17   -1.263596E-19   -2.803455E-20   -1.160359E-21   -3.447481E-23   -8.240604E-25   -1.640715E-26   -2.798212E-28   -4.224625E-30
        -5.933742E-32
   8    -4.665656E-30   -2.806538E-28   -1.558041E-26   -7.631662E-25   -3.202521E-23   -1.109722E-21   -2.815964E-20   -9.153451E-20    5.483278E-17    5.136357E-15
         3.095751E-13    1.338858E-11    4.120273E-10    8.616878E-09    1.100893E-07    6.274886E-07    1.100893E-07    8.616878E-09    4.120273E-10    1.338858E-11
         3.095753E-13    5.136443E-15    5.485081E-17   -8.951172E-20   -2.803034E-20   -1.103905E-21   -3.182528E-23   -7.576393E-25   -1.545233E-26   -2.780732E-28
        -4.618212E-30
   9    -2.632671E-28   -1.365584E-26   -6.484219E-25   -2.698713E-23   -9.506154E-22   -2.541306E-20   -1.280045E-19    5.483278E-17    6.023488E-15    4.321098E-13
         2.278186E-11    8.824491E-10    2.449310E-08    4.649722E-07    5.453473E-06    2.881100E-05    5.453473E-06    4.649722E-07    2.449310E-08    8.824491E-10
         2.278186E-11    4.321100E-13    6.023600E-15    5.485154E-17   -1.262356E-19   -2.531379E-20   -9.465381E-22   -2.685483E-23   -6.448609E-25   -1.357317E-26
        -2.615277E-28
  10    -1.091883E-26   -4.952704E-25   -2.037113E-23   -7.238987E-22   -2.037878E-20   -1.943461E-19    3.917023E-17    5.136357E-15    4.321098E-13    2.709002E-11
         1.269918E-09    4.364520E-08    1.069995E-06    1.798242E-05    1.892337E-04    9.098242E-04    1.892337E-04    1.798242E-05    1.069995E-06    4.364520E-08
         1.269918E-09    2.709002E-11    4.321100E-13    5.136449E-15    3.918354E-17   -1.932564E-19   -2.032313E-20   -7.217497E-22   -2.030376E-23   -4.934746E-25
        -1.087585E-26
  11    -3.322945E-25   -1.334145E-23   -4.788062E-22   -1.415000E-20   -2.151580E-19    1.915282E-17    3.155014E-15    3.095751E-13    2.278186E-11    1.269918E-09
         5.250393E-08    1.565261E-06    3.278319E-05    4.691897E-04    4.275414E-03    1.820056E-02    4.275414E-03    4.691897E-04    3.278319E-05    1.565261E-06
         5.250393E-08    1.269918E-09    2.278186E-11    3.095752E-13    3.155066E-15    1.915917E-17   -2.146950E-19   -1.412792E-20   -4.779878E-22   -1.331627E-23
        -3.316091E-25
  12    -7.362644E-24   -2.646590E-22   -8.231136E-21   -1.695529E-19    5.526324E-18    1.353694E-15    1.557574E-13    1.338858E-11    8.824491E-10    4.364520E-08
         1.565261E-06    3.929120E-05    6.713597E-04    7.718127E-03    5.761316E-02    0.208114        5.761316E-02    7.718127E-03    6.713597E-04    3.929120E-05
         1.565261E-06    4.364520E-08    8.824491E-10    1.338858E-11    1.557575E-13    1.353716E-15    5.528420E-18   -1.694197E-19   -8.225155E-21   -2.644443E-22
        -7.355978E-24
  13    -1.180975E-22   -3.828158E-21   -9.703254E-20    1.968551E-19    3.806457E-16    5.270411E-14    5.291035E-12    4.120273E-10    2.449310E-08    1.069995E-06
         3.278319E-05    6.713597E-04    8.869590E-03    7.554962E-02    0.425565         1.22580        0.425565        7.554962E-02    8.869590E-03    6.713597E-04
         3.278319E-05    1.069995E-06    2.449310E-08    4.120273E-10    5.291036E-12    5.270421E-14    3.806528E-16    1.973518E-19   -9.700613E-20   -3.827064E-21
        -1.180591E-22
  14    -1.366414E-21   -3.935178E-20   -6.011450E-19    5.948227E-17    1.108683E-14    1.308846E-12    1.202684E-10    8.616878E-09    4.649722E-07    1.798242E-05
         4.691897E-04    7.718127E-03    7.554962E-02    0.440797         1.69588         3.62489         1.69588        0.440797        7.554962E-02    7.718127E-03
         4.691897E-04    1.798242E-05    4.649722E-07    8.616878E-09    1.202684E-10    1.308847E-12    1.108686E-14    5.948372E-17   -6.010633E-19   -3.934813E-20
        -1.366276E-21
  15    -1.057549E-20   -2.486081E-19    1.803885E-18    1.232416E-15    1.769829E-13    1.917947E-11    1.649671E-09    1.100893E-07    5.453473E-06    1.892337E-04
         4.275414E-03    5.761316E-02    0.425565         1.69588         4.51238         6.15634         4.51238         1.69588        0.425565        5.761316E-02
         4.275414E-03    1.892337E-04    5.453473E-06    1.100893E-07    1.649671E-09    1.917947E-11    1.769829E-13    1.232419E-15    1.804025E-18   -2.486018E-19
        -1.057525E-20
  16    -5.058178E-20   -8.613501E-19    3.973176E-17    9.225332E-15    1.203682E-12    1.231193E-10    1.001719E-08    6.274886E-07    2.881100E-05    9.098242E-04
         1.820056E-02    0.208114         1.22580         3.62489         6.15634         7.96774         6.15634         3.62489         1.22580        0.208114    
         1.820056E-02    9.098242E-04    2.881100E-05    6.274886E-07    1.001719E-08    1.231193E-10    1.203682E-12    9.225332E-15    3.973176E-17   -8.613501E-19
        -5.058178E-20
  17    -1.057527E-20   -2.486025E-19    1.804009E-18    1.232419E-15    1.769829E-13    1.917947E-11    1.649671E-09    1.100893E-07    5.453473E-06    1.892337E-04
         4.275414E-03    5.761316E-02    0.425565         1.69588         4.51238         6.15634         4.51238         1.69588        0.425565        5.761316E-02
         4.275414E-03    1.892337E-04    5.453473E-06    1.100893E-07    1.649671E-09    1.917947E-11    1.769829E-13    1.232416E-15    1.803885E-18   -2.486081E-19
        -1.057549E-20
  18    -1.366299E-21   -3.934873E-20   -6.010762E-19    5.948351E-17    1.108686E-14    1.308847E-12    1.202684E-10    8.616878E-09    4.649722E-07    1.798242E-05
         4.691897E-04    7.718127E-03    7.554962E-02    0.440797         1.69588         3.62489         1.69588        0.440797        7.554962E-02    7.718127E-03
         4.691897E-04    1.798242E-05    4.649722E-07    8.616878E-09    1.202684E-10    1.308846E-12    1.108683E-14    5.948227E-17   -6.011449E-19   -3.935178E-20
        -1.366414E-21
  19    -1.180675E-22   -3.827296E-21   -9.701154E-20    1.972574E-19    3.806517E-16    5.270420E-14    5.291035E-12    4.120273E-10    2.449310E-08    1.069995E-06
         3.278319E-05    6.713597E-04    8.869590E-03    7.554962E-02    0.425565         1.22580        0.425565        7.554962E-02    8.869590E-03    6.713597E-04
         3.278319E-05    1.069995E-06    2.449310E-08    4.120273E-10    5.291035E-12    5.270411E-14    3.806457E-16    1.968552E-19   -9.703253E-20   -3.828158E-21
        -1.180975E-22
  20    -7.357509E-24   -2.644926E-22   -8.226468E-21   -1.694478E-19    5.528013E-18    1.353713E-15    1.557575E-13    1.338858E-11    8.824491E-10    4.364520E-08
         1.565261E-06    3.929120E-05    6.713597E-04    7.718127E-03    5.761316E-02    0.208114        5.761316E-02    7.718127E-03    6.713597E-04    3.929120E-05
         1.565261E-06    4.364520E-08    8.824491E-10    1.338858E-11    1.557574E-13    1.353694E-15    5.526325E-18   -1.695529E-19   -8.231136E-21   -2.646590E-22
        -7.362644E-24
  21    -3.317551E-25   -1.332149E-23   -4.781522E-22   -1.413217E-20   -2.147792E-19    1.915814E-17    3.155061E-15    3.095753E-13    2.278186E-11    1.269918E-09
         5.250393E-08    1.565261E-06    3.278319E-05    4.691897E-04    4.275414E-03    1.820056E-02    4.275414E-03    4.691897E-04    3.278319E-05    1.565261E-06
         5.250393E-08    1.269918E-09    2.278186E-11    3.095751E-13    3.155014E-15    1.915282E-17   -2.151580E-19   -1.415000E-20   -4.788062E-22   -1.334145E-23
        -3.322945E-25
  22    -1.088385E-26   -4.937959E-25   -2.031525E-23   -7.220948E-22   -2.033138E-20   -1.934003E-19    3.918209E-17    5.136443E-15    4.321100E-13    2.709002E-11
         1.269918E-09    4.364520E-08    1.069995E-06    1.798242E-05    1.892337E-04    9.098242E-04    1.892337E-04    1.798242E-05    1.069995E-06    4.364520E-08
         1.269918E-09    2.709002E-11    4.321098E-13    5.136357E-15    3.917023E-17   -1.943461E-19   -2.037878E-20   -7.238987E-22   -2.037112E-23   -4.952704E-25
        -1.091883E-26
  23    -2.618022E-28   -1.358548E-26   -6.453549E-25   -2.687159E-23   -9.469948E-22   -2.532309E-20   -1.263596E-19    5.485081E-17    6.023600E-15    4.321100E-13
         2.278186E-11    8.824491E-10    2.449310E-08    4.649722E-07    5.453473E-06    2.881100E-05    5.453473E-06    4.649722E-07    2.449310E-08    8.824491E-10
         2.278186E-11    4.321098E-13    6.023488E-15    5.483278E-17   -1.280045E-19   -2.541306E-20   -9.506154E-22   -2.698713E-23   -6.484219E-25   -1.365584E-26
        -2.632671E-28
  24    -4.624412E-30   -2.783839E-28   -1.546626E-26   -7.581645E-25   -3.184097E-23   -1.104243E-21   -2.803455E-20   -8.951172E-20    5.485154E-17    5.136449E-15
         3.095752E-13    1.338858E-11    4.120273E-10    8.616878E-09    1.100893E-07    6.274886E-07    1.100893E-07    8.616878E-09    4.120273E-10    1.338858E-11
         3.095751E-13    5.136357E-15    5.483278E-17   -9.153451E-20   -2.815964E-20   -1.109722E-21   -3.202521E-23   -7.631662E-25   -1.558041E-26   -2.806538E-28
        -4.665656E-30
  25    -5.943218E-32   -4.229948E-30   -2.800873E-28   -1.641813E-26   -8.244012E-25   -3.448128E-23   -1.160359E-21   -2.803034E-20   -1.262356E-19    3.918354E-17
         3.155066E-15    1.557575E-13    5.291036E-12    1.202684E-10    1.649671E-09    1.001719E-08    1.649671E-09    1.202684E-10    5.291035E-12    1.557574E-13
         3.155014E-15    3.917023E-17   -1.280045E-19   -2.815964E-20   -1.166761E-21   -3.471516E-23   -8.310549E-25   -1.657185E-26   -2.830820E-28   -4.280986E-30
        -6.023193E-32
  26    -5.421101E-34   -4.695057E-32   -3.815806E-30   -2.742428E-28   -1.675679E-26   -8.456609E-25   -3.447481E-23   -1.103905E-21   -2.531379E-20   -1.932564E-19
         1.915917E-17    1.353716E-15    5.270421E-14    1.308847E-12    1.917947E-11    1.231193E-10    1.917947E-11    1.308846E-12    5.270411E-14    1.353694E-15
         1.915282E-17   -1.943461E-19   -2.541306E-20   -1.109722E-21   -3.471516E-23   -8.530776E-25   -1.693523E-26   -2.777164E-28   -3.872574E-30   -4.776228E-32
        -5.528625E-34
  27    -3.334079E-36   -3.692023E-34   -3.869398E-32   -3.546549E-30   -2.709106E-28   -1.675265E-26   -8.240604E-25   -3.182528E-23   -9.465381E-22   -2.032313E-20
        -2.146950E-19    5.528420E-18    3.806528E-16    1.108686E-14    1.769829E-13    1.203682E-12    1.769829E-13    1.108683E-14    3.806457E-16    5.526325E-18
        -2.151580E-19   -2.037878E-20   -9.506154E-22   -3.202521E-23   -8.310549E-25   -1.693523E-26   -2.745928E-28   -3.605778E-30   -3.948242E-32   -3.783294E-34
        -3.433060E-36
  28    -1.237984E-38   -1.940442E-36   -2.873409E-34   -3.576779E-32   -3.545373E-30   -2.740923E-28   -1.640715E-26   -7.576393E-25   -2.685483E-23   -7.217497E-22
        -1.412792E-20   -1.694197E-19    1.973518E-19    5.948372E-17    1.232419E-15    9.225332E-15    1.232416E-15    5.948227E-17    1.968552E-19   -1.695529E-19
        -1.415000E-20   -7.238987E-22   -2.698713E-23   -7.631662E-25   -1.657185E-26   -2.777164E-28   -3.605778E-30   -3.654863E-32   -2.954312E-34   -2.011836E-36
        -1.297991E-38
  29    -2.002287E-41   -6.042135E-39   -1.538491E-36   -2.871996E-34   -3.866445E-32   -3.812346E-30   -2.798212E-28   -1.545233E-26   -6.448609E-25   -2.030376E-23
        -4.779878E-22   -8.225155E-21   -9.700613E-20   -6.010633E-19    1.804025E-18    3.973176E-17    1.803885E-18   -6.011449E-19   -9.703253E-20   -8.231136E-21
        -4.788062E-22   -2.037112E-23   -6.484219E-25   -1.558041E-26   -2.830820E-28   -3.872574E-30   -3.948242E-32   -2.954312E-34   -1.600794E-36   -6.418883E-39
        -2.222433E-41
  30     1.087858E-44   -7.787486E-42   -6.035903E-39   -1.938030E-36   -3.687137E-34   -4.688826E-32   -4.224625E-30   -2.780732E-28   -1.357317E-26   -4.934746E-25
        -1.331627E-23   -2.644443E-22   -3.827064E-21   -3.934813E-20   -2.486018E-19   -8.613501E-19   -2.486081E-19   -3.935178E-20   -3.828158E-21   -2.646590E-22
        -1.334145E-23   -4.952704E-25   -1.365584E-26   -2.806538E-28   -4.280986E-30   -4.776228E-32   -3.783294E-34   -2.011836E-36   -6.418883E-39   -9.107625E-42
         6.871155E-45
  31      0.00000        1.095870E-44   -1.994765E-41   -1.234984E-38   -3.327258E-36   -5.411258E-34   -5.933742E-32   -4.618212E-30   -2.615277E-28   -1.087585E-26
        -3.316091E-25   -7.355978E-24   -1.180591E-22   -1.366276E-21   -1.057525E-20   -5.058178E-20   -1.057549E-20   -1.366414E-21   -1.180975E-22   -7.362644E-24
        -3.322945E-25   -1.091883E-26   -2.632671E-28   -4.665656E-30   -6.023193E-32   -5.528625E-34   -3.433060E-36   -1.297991E-38   -2.222433E-41    6.871155E-45
          0.00000    

 CONCENTRATION WILL BE SAVED ON UNIT 1030 AT END OF TIME STEP   79, STRESS PERIOD    2


  MASS BUDGET FOR ENTIRE MODEL AT END OF TIME STEP   79, STRESS PERIOD   2
  ---------------------------------------------------------------------------------------------------

     CUMULATIVE MASS      M       RATES FOR THIS TIME STEP      M/T          PACKAGE NAME    
     ------------------                 ------------------------                     ----------------

           IN:                                      IN:
           ---                                      ---
     STORAGE-AQUEOUS =  7373330714.0599       STORAGE-AQUEOUS =      688420.7739     MST                              
                 WEL =  7884000000.0000                   WEL =           0.0000     SSM_WEL-1                        
                 CHD =           0.0000                   CHD =           0.0000     SSM_CHD-1                        

            TOTAL IN = 15257330714.0599              TOTAL IN =      688420.7739

          OUT:                                     OUT:
          ----                                     ----
     STORAGE-AQUEOUS =  7888717344.3093       STORAGE-AQUEOUS =           8.2031     MST                              
                 WEL =  7368613369.7507                   WEL =      688412.5708     SSM_WEL-1                        
                 CHD =       7.5562E-18                   CHD =           0.0000     SSM_CHD-1                        

           TOTAL OUT = 15257330714.0600             TOTAL OUT =      688420.7739

            IN - OUT =      -1.3161E-04              IN - OUT =      -1.9080E-07

 PERCENT DISCREPANCY =          -0.00     PERCENT DISCREPANCY =          -0.00




         TIME SUMMARY AT END OF TIME STEP   79 IN STRESS PERIOD    2
                    SECONDS     MINUTES      HOURS       DAYS        YEARS
                    -----------------------------------------------------------
   TIME STEP LENGTH 2.16991E+06  36165.      602.75      25.115     6.87602E-02
 STRESS PERIOD TIME 1.71423E+08 2.85705E+06  47617.      1984.1      5.4321    
         TOTAL TIME 2.50263E+08 4.17105E+06  69517.      2896.6      7.9303    


end timestep


start timestep kper="2" kstp="80" mode="normal"

 UBDSV1 SAVING  STORAGE-AQUEOUS ON UNIT   1029 AT TIME STEP     80, STRESS PERIOD      2
 UBDSV1 SAVING     FLOW-JA-FACE ON UNIT   1029 AT TIME STEP     80, STRESS PERIOD      2
 UBDSV06 SAVING  SOURCE-SINK MIX IN MODEL GWT_P06-MF6      PACKAGE GWT_P06-MF6     CONNECTED TO MODEL GWT_P06-MF6      PACKAGE SSM              ON UNIT   1029 AT TIME STEP     80, STRESS PERIOD      2
1
  CONCENTRATION IN LAYER   1 AT END OF TIME STEP  80 IN STRESS PERIOD    2
  ---------------------------------------------------------------------------

                1               2               3               4               5               6               7               8               9              10
               11              12              13              14              15              16              17              18              19              20
               21              22              23              24              25              26              27              28              29              30
               31
 ................................................................................................................................................................................................................................................................................................................................................................................................................................................................................................................
   1      0.00000        4.548569E-45   -2.467080E-41   -1.393595E-38   -3.640355E-36   -5.816678E-34   -6.298029E-32   -4.852236E-30   -2.724345E-28   -1.124650E-26
        -3.407949E-25   -7.521985E-24   -1.202391E-22   -1.385959E-21   -1.067611E-20   -5.072660E-20   -1.067589E-20   -1.385843E-21   -1.202087E-22   -7.516778E-24
        -3.402462E-25   -1.121078E-26   -2.709326E-28   -4.809770E-30   -6.215329E-32   -5.705003E-34   -3.537092E-36   -1.330699E-38   -2.235143E-41    8.796846E-45
          0.00000    
   2     4.548569E-45   -1.033003E-41   -6.913047E-39   -2.133912E-36   -3.979280E-34   -4.992829E-32   -4.451839E-30   -2.904688E-28   -1.407013E-26   -5.081198E-25
        -1.363190E-23   -2.693309E-22   -3.876887E-21   -3.952817E-20   -2.457022E-19   -8.280869E-19   -2.456966E-19   -3.952510E-20   -3.876017E-21   -2.691627E-22
        -1.361166E-23   -5.066189E-25   -1.399823E-26   -2.881403E-28   -4.399275E-30   -4.908899E-32   -3.884533E-34   -2.059496E-36   -6.518615E-39   -8.940540E-42
         8.882395E-45
   3    -2.467080E-41   -6.913047E-39   -1.698263E-36   -3.106673E-34   -4.125948E-32   -4.026139E-30   -2.929565E-28   -1.605446E-26   -6.653847E-25   -2.081796E-23
        -4.870579E-22   -8.314055E-21   -9.634681E-20   -5.549824E-19    2.623263E-18    4.529838E-17    2.623387E-18   -5.549133E-19   -9.632569E-20   -8.309351E-21
        -4.863968E-22   -2.076128E-23   -6.622613E-25   -1.593778E-26   -2.898836E-28   -3.967671E-30   -4.044443E-32   -3.022723E-34   -1.633348E-36   -6.512055E-39
        -2.227169E-41
   4    -1.393595E-38   -2.133912E-36   -3.106673E-34   -3.818783E-32   -3.747963E-30   -2.873546E-28   -1.707489E-26   -7.831613E-25   -2.758000E-23   -7.359685E-22
        -1.423848E-20   -1.642106E-19    4.838967E-19    6.691524E-17    1.342065E-15    9.920315E-15    1.342067E-15    6.691647E-17    4.842982E-19   -1.641051E-19
        -1.422053E-20   -7.341447E-22   -2.746273E-23   -7.780657E-25   -1.691769E-26   -2.837898E-28   -3.686960E-30   -3.738069E-32   -3.021251E-34   -2.056972E-36
        -1.327539E-38
   5    -3.640355E-36   -3.979280E-34   -4.125948E-32   -3.747963E-30   -2.840995E-28   -1.744785E-26   -8.527945E-25   -3.272658E-23   -9.658129E-22   -2.040877E-20
        -1.973805E-19    6.580549E-18    4.183590E-16    1.196303E-14    1.889360E-13    1.274620E-12    1.889360E-13    1.196306E-14    4.183650E-16    6.582229E-18
        -1.970008E-19   -2.036103E-20   -9.621516E-22   -3.253954E-23   -8.460143E-25   -1.726536E-26   -2.803204E-28   -3.685747E-30   -4.041381E-32   -3.879444E-34
        -3.529948E-36
   6    -5.816678E-34   -4.992829E-32   -4.026139E-30   -2.873546E-28   -1.744785E-26   -8.753704E-25   -3.547295E-23   -1.126814E-21   -2.533085E-20   -1.558481E-19
         2.180189E-17    1.475633E-15    5.660313E-14    1.391585E-12    2.022543E-11    1.288920E-10    2.022543E-11    1.391585E-12    5.660322E-14    1.475652E-15
         2.180717E-17   -1.549004E-19   -2.524024E-20   -1.121271E-21   -3.523549E-23   -8.678121E-25   -1.726112E-26   -2.836351E-28   -3.964099E-30   -4.902439E-32
        -5.694749E-34
   7    -6.298029E-32   -4.451839E-30   -2.929565E-28   -1.707489E-26   -8.527945E-25   -3.547295E-23   -1.184461E-21   -2.798410E-20   -6.826465E-20    4.394701E-17
         3.424988E-15    1.667818E-13    5.608382E-12    1.263821E-10    1.720159E-09    1.037117E-08    1.720159E-09    1.263821E-10    5.608383E-12    1.667819E-13
         3.425034E-15    4.395878E-17   -6.661688E-20   -2.785811E-20   -1.177986E-21   -3.522891E-23   -8.456667E-25   -1.690646E-26   -2.896101E-28   -4.393781E-30
        -6.205507E-32
   8    -4.852236E-30   -2.904688E-28   -1.605446E-26   -7.831613E-25   -3.272658E-23   -1.126814E-21   -2.798410E-20   -2.261549E-20    6.120135E-17    5.564183E-15
         3.308602E-13    1.415938E-11    4.317010E-10    8.952047E-09    1.134976E-07    6.423854E-07    1.134976E-07    8.952047E-09    4.317010E-10    1.415938E-11
         3.308604E-13    5.564269E-15    6.121921E-17   -2.058944E-20   -2.785387E-20   -1.120929E-21   -3.252360E-23   -7.775301E-25   -1.592352E-26   -2.878211E-28
        -4.803376E-30
   9    -2.724345E-28   -1.407013E-26   -6.653847E-25   -2.758000E-23   -9.658129E-22   -2.533085E-20   -6.826465E-20    6.120135E-17    6.520972E-15    4.613891E-13
         2.405891E-11    9.225751E-10    2.536767E-08    4.774712E-07    5.557535E-06    2.915910E-05    5.557535E-06    4.774712E-07    2.536767E-08    9.225751E-10
         2.405891E-11    4.613893E-13    6.521083E-15    6.121994E-17   -6.649275E-20   -2.523088E-20   -9.616897E-22   -2.744572E-23   -6.617579E-25   -1.398564E-26
        -2.706508E-28
  10    -1.124650E-26   -5.081198E-25   -2.081796E-23   -7.359685E-22   -2.040877E-20   -1.558481E-19    4.394701E-17    5.564183E-15    4.613891E-13    2.859455E-11
         1.326114E-09    4.510918E-08    1.095258E-06    1.824803E-05    1.905892E-04    9.102631E-04    1.905892E-04    1.824803E-05    1.095258E-06    4.510918E-08
         1.326114E-09    2.859455E-11    4.613893E-13    5.564274E-15    4.396021E-17   -1.547563E-19   -2.035273E-20   -7.337959E-22   -2.074962E-23   -5.062917E-25
        -1.120260E-26
  11    -3.407949E-25   -1.363190E-23   -4.870579E-22   -1.423848E-20   -1.973805E-19    2.180189E-17    3.424988E-15    3.308602E-13    2.405891E-11    1.326114E-09
         5.422477E-08    1.599297E-06    3.316229E-05    4.704652E-04    4.255811E-03    1.800456E-02    4.255811E-03    4.704652E-04    3.316229E-05    1.599297E-06
         5.422477E-08    1.326114E-09    2.405891E-11    3.308604E-13    3.425039E-15    2.180820E-17   -1.969164E-19   -1.421624E-20   -4.862307E-22   -1.360637E-23
        -3.400977E-25
  12    -7.521985E-24   -2.693309E-22   -8.314055E-21   -1.642106E-19    6.580549E-18    1.475633E-15    1.667818E-13    1.415938E-11    9.225751E-10    4.510918E-08
         1.599297E-06    3.969809E-05    6.712947E-04    7.649566E-03    5.671173E-02    0.203746        5.671173E-02    7.649566E-03    6.712947E-04    3.969809E-05
         1.599297E-06    4.510918E-08    9.225751E-10    1.415938E-11    1.667819E-13    1.475655E-15    6.582633E-18   -1.640769E-19   -8.308029E-21   -2.691139E-22
        -7.515226E-24
  13    -1.202391E-22   -3.876887E-21   -9.634681E-20    4.838967E-19    4.183590E-16    5.660313E-14    5.608382E-12    4.317010E-10    2.536767E-08    1.095258E-06
         3.316229E-05    6.712947E-04    8.774791E-03    7.410006E-02    0.414955         1.19046        0.414955        7.410006E-02    8.774791E-03    6.712947E-04
         3.316229E-05    1.095258E-06    2.536767E-08    4.317010E-10    5.608383E-12    5.660323E-14    4.183661E-16    4.843922E-19   -9.632026E-20   -3.875783E-21
        -1.202003E-22
  14    -1.385959E-21   -3.952817E-20   -5.549824E-19    6.691524E-17    1.196303E-14    1.391585E-12    1.263821E-10    8.952047E-09    4.774712E-07    1.824803E-05
         4.704652E-04    7.649566E-03    7.410006E-02    0.428965         1.64329         3.50519         1.64329        0.428965        7.410006E-02    7.649566E-03
         4.704652E-04    1.824803E-05    4.774712E-07    8.952047E-09    1.263821E-10    1.391585E-12    1.196306E-14    6.691668E-17   -5.549003E-19   -3.952450E-20
        -1.385820E-21
  15    -1.067611E-20   -2.457022E-19    2.623263E-18    1.342065E-15    1.889360E-13    2.022543E-11    1.720159E-09    1.134976E-07    5.557535E-06    1.905892E-04
         4.255811E-03    5.671173E-02    0.414955         1.64329         4.36072         5.94471         4.36072         1.64329        0.414955        5.671173E-02
         4.255811E-03    1.905892E-04    5.557535E-06    1.134976E-07    1.720159E-09    2.022543E-11    1.889360E-13    1.342068E-15    2.623403E-18   -2.456959E-19
        -1.067587E-20
  16    -5.072660E-20   -8.280869E-19    4.529838E-17    9.920315E-15    1.274620E-12    1.288920E-10    1.037117E-08    6.423854E-07    2.915910E-05    9.102631E-04
         1.800456E-02    0.203746         1.19046         3.50519         5.94471         7.68935         5.94471         3.50519         1.19046        0.203746    
         1.800456E-02    9.102631E-04    2.915910E-05    6.423854E-07    1.037117E-08    1.288920E-10    1.274620E-12    9.920315E-15    4.529838E-17   -8.280869E-19
        -5.072660E-20
  17    -1.067589E-20   -2.456966E-19    2.623387E-18    1.342067E-15    1.889360E-13    2.022543E-11    1.720159E-09    1.134976E-07    5.557535E-06    1.905892E-04
         4.255811E-03    5.671173E-02    0.414955         1.64329         4.36072         5.94471         4.36072         1.64329        0.414955        5.671173E-02
         4.255811E-03    1.905892E-04    5.557535E-06    1.134976E-07    1.720159E-09    2.022543E-11    1.889360E-13    1.342065E-15    2.623263E-18   -2.457022E-19
        -1.067611E-20
  18    -1.385843E-21   -3.952510E-20   -5.549133E-19    6.691647E-17    1.196306E-14    1.391585E-12    1.263821E-10    8.952047E-09    4.774712E-07    1.824803E-05
         4.704652E-04    7.649566E-03    7.410006E-02    0.428965         1.64329         3.50519         1.64329        0.428965        7.410006E-02    7.649566E-03
         4.704652E-04    1.824803E-05    4.774712E-07    8.952047E-09    1.263821E-10    1.391585E-12    1.196303E-14    6.691524E-17   -5.549824E-19   -3.952817E-20
        -1.385959E-21
  19    -1.202087E-22   -3.876017E-21   -9.632569E-20    4.842982E-19    4.183650E-16    5.660322E-14    5.608383E-12    4.317010E-10    2.536767E-08    1.095258E-06
         3.316229E-05    6.712947E-04    8.774791E-03    7.410006E-02    0.414955         1.19046        0.414955        7.410006E-02    8.774791E-03    6.712947E-04
         3.316229E-05    1.095258E-06    2.536767E-08    4.317010E-10    5.608382E-12    5.660313E-14    4.183590E-16    4.838968E-19   -9.634681E-20   -3.876887E-21
        -1.202391E-22
  20    -7.516778E-24   -2.691627E-22   -8.309351E-21   -1.641051E-19    6.582229E-18    1.475652E-15    1.667819E-13    1.415938E-11    9.225751E-10    4.510918E-08
         1.599297E-06    3.969809E-05    6.712947E-04    7.649566E-03    5.671173E-02    0.203746        5.671173E-02    7.649566E-03    6.712947E-04    3.969809E-05
         1.599297E-06    4.510918E-08    9.225751E-10    1.415938E-11    1.667818E-13    1.475633E-15    6.580549E-18   -1.642106E-19   -8.314055E-21   -2.693309E-22
        -7.521985E-24
  21    -3.402462E-25   -1.361166E-23   -4.863968E-22   -1.422053E-20   -1.970008E-19    2.180717E-17    3.425034E-15    3.308604E-13    2.405891E-11    1.326114E-09
         5.422477E-08    1.599297E-06    3.316229E-05    4.704652E-04    4.255811E-03    1.800456E-02    4.255811E-03    4.704652E-04    3.316229E-05    1.599297E-06
         5.422477E-08    1.326114E-09    2.405891E-11    3.308602E-13    3.424988E-15    2.180189E-17   -1.973805E-19   -1.423848E-20   -4.870579E-22   -1.363190E-23
        -3.407949E-25
  22    -1.121078E-26   -5.066189E-25   -2.076128E-23   -7.341447E-22   -2.036103E-20   -1.549004E-19    4.395878E-17    5.564269E-15    4.613893E-13    2.859455E-11
         1.326114E-09    4.510918E-08    1.095258E-06    1.824803E-05    1.905892E-04    9.102631E-04    1.905892E-04    1.824803E-05    1.095258E-06    4.510918E-08
         1.326114E-09    2.859455E-11    4.613891E-13    5.564183E-15    4.394701E-17   -1.558481E-19   -2.040877E-20   -7.359685E-22   -2.081796E-23   -5.081198E-25
        -1.124650E-26
  23    -2.709326E-28   -1.399823E-26   -6.622613E-25   -2.746273E-23   -9.621516E-22   -2.524024E-20   -6.661688E-20    6.121921E-17    6.521083E-15    4.613893E-13
         2.405891E-11    9.225751E-10    2.536767E-08    4.774712E-07    5.557535E-06    2.915910E-05    5.557535E-06    4.774712E-07    2.536767E-08    9.225751E-10
         2.405891E-11    4.613891E-13    6.520972E-15    6.120135E-17   -6.826465E-20   -2.533085E-20   -9.658129E-22   -2.758000E-23   -6.653847E-25   -1.407013E-26
        -2.724345E-28
  24    -4.809770E-30   -2.881403E-28   -1.593778E-26   -7.780657E-25   -3.253954E-23   -1.121271E-21   -2.785811E-20   -2.058944E-20    6.121994E-17    5.564274E-15
         3.308604E-13    1.415938E-11    4.317010E-10    8.952047E-09    1.134976E-07    6.423854E-07    1.134976E-07    8.952047E-09    4.317010E-10    1.415938E-11
         3.308602E-13    5.564183E-15    6.120135E-17   -2.261549E-20   -2.798410E-20   -1.126814E-21   -3.272658E-23   -7.831613E-25   -1.605446E-26   -2.904688E-28
        -4.852236E-30
  25    -6.215329E-32   -4.399275E-30   -2.898836E-28   -1.691769E-26   -8.460143E-25   -3.523549E-23   -1.177986E-21   -2.785387E-20   -6.649275E-20    4.396021E-17
         3.425039E-15    1.667819E-13    5.608383E-12    1.263821E-10    1.720159E-09    1.037117E-08    1.720159E-09    1.263821E-10    5.608382E-12    1.667818E-13
         3.424988E-15    4.394701E-17   -6.826465E-20   -2.798410E-20   -1.184461E-21   -3.547295E-23   -8.527945E-25   -1.707489E-26   -2.929565E-28   -4.451839E-30
        -6.298029E-32
  26    -5.705003E-34   -4.908899E-32   -3.967671E-30   -2.837898E-28   -1.726536E-26   -8.678121E-25   -3.522891E-23   -1.120929E-21   -2.523088E-20   -1.547563E-19
         2.180820E-17    1.475655E-15    5.660323E-14    1.391585E-12    2.022543E-11    1.288920E-10    2.022543E-11    1.391585E-12    5.660313E-14    1.475633E-15
         2.180189E-17   -1.558481E-19   -2.533085E-20   -1.126814E-21   -3.547295E-23   -8.753704E-25   -1.744785E-26   -2.873546E-28   -4.026139E-30   -4.992829E-32
        -5.816678E-34
  27    -3.537092E-36   -3.884533E-34   -4.044443E-32   -3.686960E-30   -2.803204E-28   -1.726112E-26   -8.456667E-25   -3.252360E-23   -9.616897E-22   -2.035273E-20
        -1.969164E-19    6.582633E-18    4.183661E-16    1.196306E-14    1.889360E-13    1.274620E-12    1.889360E-13    1.196303E-14    4.183590E-16    6.580549E-18
        -1.973805E-19   -2.040877E-20   -9.658129E-22   -3.272658E-23   -8.527945E-25   -1.744785E-26   -2.840995E-28   -3.747963E-30   -4.125948E-32   -3.979280E-34
        -3.640355E-36
  28    -1.330699E-38   -2.059496E-36   -3.022723E-34   -3.738069E-32   -3.685747E-30   -2.836351E-28   -1.690646E-26   -7.775301E-25   -2.744572E-23   -7.337959E-22
        -1.421624E-20   -1.640769E-19    4.843922E-19    6.691668E-17    1.342068E-15    9.920315E-15    1.342065E-15    6.691524E-17    4.838968E-19   -1.642106E-19
        -1.423848E-20   -7.359685E-22   -2.758000E-23   -7.831613E-25   -1.707489E-26   -2.873546E-28   -3.747963E-30   -3.818783E-32   -3.106673E-34   -2.133912E-36
        -1.393595E-38
  29    -2.235143E-41   -6.518615E-39   -1.633348E-36   -3.021251E-34   -4.041381E-32   -3.964099E-30   -2.896101E-28   -1.592352E-26   -6.617579E-25   -2.074962E-23
        -4.862307E-22   -8.308029E-21   -9.632026E-20   -5.549003E-19    2.623403E-18    4.529838E-17    2.623263E-18   -5.549824E-19   -9.634681E-20   -8.314055E-21
        -4.870579E-22   -2.081796E-23   -6.653847E-25   -1.605446E-26   -2.929565E-28   -4.026139E-30   -4.125948E-32   -3.106673E-34   -1.698263E-36   -6.913046E-39
        -2.467080E-41
  30     8.796846E-45   -8.940540E-42   -6.512055E-39   -2.056972E-36   -3.879444E-34   -4.902439E-32   -4.393781E-30   -2.878211E-28   -1.398564E-26   -5.062917E-25
        -1.360637E-23   -2.691139E-22   -3.875783E-21   -3.952450E-20   -2.456959E-19   -8.280869E-19   -2.457022E-19   -3.952817E-20   -3.876887E-21   -2.693309E-22
        -1.363190E-23   -5.081198E-25   -1.407013E-26   -2.904688E-28   -4.451839E-30   -4.992829E-32   -3.979280E-34   -2.133912E-36   -6.913046E-39   -1.033003E-41
         4.548570E-45
  31      0.00000        8.882395E-45   -2.227169E-41   -1.327539E-38   -3.529948E-36   -5.694749E-34   -6.205507E-32   -4.803376E-30   -2.706508E-28   -1.120260E-26
        -3.400977E-25   -7.515226E-24   -1.202003E-22   -1.385820E-21   -1.067587E-20   -5.072660E-20   -1.067611E-20   -1.385959E-21   -1.202391E-22   -7.521985E-24
        -3.407949E-25   -1.124650E-26   -2.724345E-28   -4.852236E-30   -6.298029E-32   -5.816678E-34   -3.640355E-36   -1.393595E-38   -2.467080E-41    4.548570E-45
          0.00000    

 CONCENTRATION WILL BE SAVED ON UNIT 1030 AT END OF TIME STEP   80, STRESS PERIOD    2


  MASS BUDGET FOR ENTIRE MODEL AT END OF TIME STEP   80, STRESS PERIOD   2
  ---------------------------------------------------------------------------------------------------

     CUMULATIVE MASS      M       RATES FOR THIS TIME STEP      M/T          PACKAGE NAME    
     ------------------                 ------------------------                     ----------------

           IN:                                      IN:
           ---                                      ---
     STORAGE-AQUEOUS =  7390016072.2536       STORAGE-AQUEOUS =      664366.7737     MST                              
                 WEL =  7884000000.0000                   WEL =           0.0000     SSM_WEL-1                        
                 CHD =           0.0000                   CHD =           0.0000     SSM_CHD-1                        

            TOTAL IN = 15274016072.2536              TOTAL IN =      664366.7737

          OUT:                                     OUT:
          ----                                     ----
     STORAGE-AQUEOUS =  7888717528.6215       STORAGE-AQUEOUS =           7.3388     MST                              
                 WEL =  7385298543.6322                   WEL =      664359.4349     SSM_WEL-1                        
                 CHD =       7.5562E-18                   CHD =           0.0000     SSM_CHD-1                        

           TOTAL OUT = 15274016072.2537             TOTAL OUT =      664366.7737

            IN - OUT =      -1.3733E-04              IN - OUT =      -1.8429E-07

 PERCENT DISCREPANCY =          -0.00     PERCENT DISCREPANCY =          -0.00




         TIME SUMMARY AT END OF TIME STEP   80 IN STRESS PERIOD    2
                    SECONDS     MINUTES      HOURS       DAYS        YEARS
                    -----------------------------------------------------------
   TIME STEP LENGTH 2.16991E+06  36165.      602.75      25.115     6.87602E-02
 STRESS PERIOD TIME 1.73593E+08 2.89321E+06  48220.      2009.2      5.5008    
         TOTAL TIME 2.52433E+08 4.20721E+06  70120.      2921.7      7.9991    


end timestep


start timestep kper="2" kstp="81" mode="normal"

 UBDSV1 SAVING  STORAGE-AQUEOUS ON UNIT   1029 AT TIME STEP     81, STRESS PERIOD      2
 UBDSV1 SAVING     FLOW-JA-FACE ON UNIT   1029 AT TIME STEP     81, STRESS PERIOD      2
 UBDSV06 SAVING  SOURCE-SINK MIX IN MODEL GWT_P06-MF6      PACKAGE GWT_P06-MF6     CONNECTED TO MODEL GWT_P06-MF6      PACKAGE SSM              ON UNIT   1029 AT TIME STEP     81, STRESS PERIOD      2
1
  CONCENTRATION IN LAYER   1 AT END OF TIME STEP  81 IN STRESS PERIOD    2
  ---------------------------------------------------------------------------

                1               2               3               4               5               6               7               8               9              10
               11              12              13              14              15              16              17              18              19              20
               21              22              23              24              25              26              27              28              29              30
               31
 ................................................................................................................................................................................................................................................................................................................................................................................................................................................................................................................
   1      0.00000        1.967636E-45   -2.729639E-41   -1.494898E-38   -3.858278E-36   -6.117644E-34   -6.583654E-32   -5.045189E-30   -2.818712E-28   -1.158232E-26
        -3.494714E-25   -7.683954E-24   -1.224041E-22   -1.405511E-21   -1.077410E-20   -5.084888E-20   -1.077388E-20   -1.405394E-21   -1.223734E-22   -7.678674E-24
        -3.489132E-25   -1.154585E-26   -2.803314E-28   -5.001469E-30   -6.498149E-32   -6.001679E-34   -3.750571E-36   -1.428990E-38   -2.485354E-41    6.469483E-45
          0.00000    
   2     1.967636E-45   -1.164440E-41   -7.436763E-39   -2.262210E-36   -4.183992E-34   -5.217898E-32   -4.628532E-30   -3.005739E-28   -1.449483E-26   -5.212359E-25
        -1.392694E-23   -2.740383E-22   -3.924853E-21   -3.967162E-20   -2.422717E-19   -7.915094E-19   -2.422660E-19   -3.966853E-20   -3.923976E-21   -2.738683E-22
        -1.390642E-23   -5.197083E-25   -1.442137E-26   -2.981855E-28   -4.574403E-30   -5.131129E-32   -4.085653E-34   -2.184659E-36   -7.023910E-39   -1.018232E-41
         6.560786E-45
   3    -2.729639E-41   -7.436763E-39   -1.800687E-36   -3.265779E-34   -4.310565E-32   -4.184938E-30   -3.031234E-28   -1.654050E-26   -6.827004E-25   -2.127152E-23
        -4.953310E-22   -8.392541E-21   -9.545717E-20   -5.038757E-19    3.506533E-18    5.124326E-17    3.506657E-18   -5.038063E-19   -9.543593E-20   -8.387801E-21
        -4.946627E-22   -2.121401E-23   -6.795199E-25   -1.642122E-26   -2.999704E-28   -4.124725E-30   -4.226318E-32   -3.178680E-34   -1.733062E-36   -7.017005E-39
        -2.476903E-41
   4    -1.494898E-38   -2.262210E-36   -3.265779E-34   -3.989059E-32   -3.894977E-30   -2.972775E-28   -1.759063E-26   -8.035712E-25   -2.818123E-23   -7.479893E-22
        -1.431240E-20   -1.580807E-19    7.960361E-19    7.489417E-17    1.458678E-15    1.065354E-14    1.458680E-15    7.489540E-17    7.964369E-19   -1.579749E-19
        -1.429432E-20   -7.461456E-22   -2.806223E-23   -7.983804E-25   -1.742991E-26   -2.936194E-28   -3.832156E-30   -3.905638E-32   -3.177147E-34   -2.182017E-36
        -1.425662E-38
   5    -3.858278E-36   -4.183992E-34   -4.310565E-32   -3.894977E-30   -2.938866E-28   -1.797342E-26   -8.749831E-25   -3.343722E-23   -9.808352E-22   -2.040578E-20
        -1.774844E-19    7.721637E-18    4.587077E-16    1.289158E-14    2.014995E-13    1.348619E-12    2.014995E-13    1.289161E-14    4.587137E-16    7.723309E-18
        -1.771037E-19   -2.035770E-20   -9.771329E-22   -3.324735E-23   -8.680746E-25   -1.778680E-26   -2.900085E-28   -3.830904E-30   -4.223145E-32   -4.080353E-34
        -3.743091E-36
   6    -6.117644E-34   -5.217898E-32   -4.184938E-30   -2.972775E-28   -1.797342E-26   -8.981227E-25   -3.624033E-23   -1.143601E-21   -2.519331E-20   -1.131801E-19
         2.466125E-17    1.605748E-15    6.072286E-14    1.478240E-12    2.131200E-11    1.348429E-10    2.131200E-11    1.478240E-12    6.072295E-14    1.605766E-15
         2.466649E-17   -1.122306E-19   -2.510205E-20   -1.137996E-21   -3.599924E-23   -8.904207E-25   -1.778246E-26   -2.934604E-28   -4.121039E-30   -5.124433E-32
        -5.990999E-34
   7    -6.583654E-32   -4.628532E-30   -3.031234E-28   -1.759063E-26   -8.749831E-25   -3.624033E-23   -1.201803E-21   -2.773743E-20   -2.339952E-21    4.909395E-17
         3.712508E-15    1.784022E-13    5.939705E-12    1.327078E-10    1.792477E-09    1.073142E-08    1.792477E-09    1.327078E-10    5.939706E-12    1.784023E-13
         3.712554E-15    4.910562E-17   -6.895427E-22   -2.761054E-20   -1.195254E-21   -3.599256E-23   -8.677201E-25   -1.741841E-26   -2.996894E-28   -4.568735E-30
        -6.487972E-32
   8    -5.045189E-30   -3.005739E-28   -1.654050E-26   -8.035712E-25   -3.343722E-23   -1.143601E-21   -2.773743E-20    5.334252E-20    6.805757E-17    6.019281E-15
         3.532573E-13    1.496207E-11    4.519844E-10    9.294318E-09    1.169464E-07    6.573228E-07    1.169464E-07    9.294318E-09    4.519844E-10    1.496207E-11
         3.532574E-13    6.019366E-15    6.807528E-17    5.537162E-20   -2.760628E-20   -1.137650E-21   -3.323116E-23   -7.978344E-25   -1.640664E-26   -2.978577E-28
        -4.994876E-30
   9    -2.818712E-28   -1.449483E-26   -6.827004E-25   -2.818123E-23   -9.808352E-22   -2.519331E-20   -2.339952E-21    6.805757E-17    7.049959E-15    4.921698E-13
         2.538655E-11    9.638295E-10    2.625701E-08    4.900443E-07    5.661049E-06    2.950058E-05    5.661049E-06    4.900443E-07    2.625701E-08    9.638295E-10
         2.538655E-11    4.921700E-13    7.050068E-15    6.807599E-17   -5.652686E-22   -2.509262E-20   -9.766658E-22   -2.804495E-23   -6.790069E-25   -1.440850E-26
        -2.800423E-28
  10    -1.158232E-26   -5.212359E-25   -2.127152E-23   -7.479893E-22   -2.040578E-20   -1.131801E-19    4.909395E-17    6.019281E-15    4.921698E-13    3.015775E-11
         1.383801E-09    4.659334E-08    1.120532E-06    1.850971E-05    1.918901E-04    9.104708E-04    1.918901E-04    1.850971E-05    1.120532E-06    4.659334E-08
         1.383801E-09    3.015775E-11    4.921700E-13    6.019371E-15    4.910704E-17   -1.120863E-19   -2.034934E-20   -7.457929E-22   -2.120218E-23   -5.193752E-25
        -1.153750E-26
  11    -3.494714E-25   -1.392694E-23   -4.953310E-22   -1.431240E-20   -1.774844E-19    2.466125E-17    3.712508E-15    3.532573E-13    2.538655E-11    1.383801E-09
         5.596735E-08    1.633229E-06    3.353199E-05    4.715984E-04    4.235375E-03    1.780820E-02    4.235375E-03    4.715984E-04    3.353199E-05    1.633229E-06
         5.596735E-08    1.383801E-09    2.538655E-11    3.532574E-13    3.712559E-15    2.466751E-17   -1.770193E-19   -1.429001E-20   -4.944949E-22   -1.390105E-23
        -3.487621E-25
  12    -7.683954E-24   -2.740383E-22   -8.392541E-21   -1.580807E-19    7.721637E-18    1.605748E-15    1.784022E-13    1.496207E-11    9.638295E-10    4.659334E-08
         1.633229E-06    4.009287E-05    6.710312E-04    7.580185E-03    5.581896E-02    0.199465        5.581896E-02    7.580185E-03    6.710312E-04    4.009287E-05
         1.633229E-06    4.659334E-08    9.638295E-10    1.496207E-11    1.784023E-13    1.605769E-15    7.723710E-18   -1.579466E-19   -8.386470E-21   -2.738190E-22
        -7.677102E-24
  13    -1.224041E-22   -3.924853E-21   -9.545717E-20    7.960361E-19    4.587077E-16    6.072286E-14    5.939705E-12    4.519844E-10    2.625701E-08    1.120532E-06
         3.353199E-05    6.710312E-04    8.679461E-03    7.267330E-02    0.404614         1.15621        0.404614        7.267330E-02    8.679461E-03    6.710312E-04
         3.353199E-05    1.120532E-06    2.625701E-08    4.519844E-10    5.939706E-12    6.072296E-14    4.587148E-16    7.965304E-19   -9.543048E-20   -3.923740E-21
        -1.223649E-22
  14    -1.405511E-21   -3.967162E-20   -5.038757E-19    7.489417E-17    1.289158E-14    1.478240E-12    1.327078E-10    9.294318E-09    4.900443E-07    1.850971E-05
         4.715984E-04    7.580185E-03    7.267330E-02    0.417462         1.59247         3.38975         1.59247        0.417462        7.267330E-02    7.580185E-03
         4.715984E-04    1.850971E-05    4.900443E-07    9.294318E-09    1.327078E-10    1.478240E-12    1.289161E-14    7.489561E-17   -5.037934E-19   -3.966792E-20
        -1.405370E-21
  15    -1.077410E-20   -2.422717E-19    3.506533E-18    1.458678E-15    2.014995E-13    2.131200E-11    1.792477E-09    1.169464E-07    5.661049E-06    1.918901E-04
         4.235375E-03    5.581896E-02    0.404614         1.59247         4.21447         5.74085         4.21447         1.59247        0.404614        5.581896E-02
         4.235375E-03    1.918901E-04    5.661049E-06    1.169464E-07    1.792477E-09    2.131200E-11    2.014995E-13    1.458680E-15    3.506673E-18   -2.422653E-19
        -1.077385E-20
  16    -5.084888E-20   -7.915094E-19    5.124326E-17    1.065354E-14    1.348619E-12    1.348429E-10    1.073142E-08    6.573228E-07    2.950058E-05    9.104708E-04
         1.780820E-02    0.199465         1.15621         3.38975         5.74085         7.42129         5.74085         3.38975         1.15621        0.199465    
         1.780820E-02    9.104708E-04    2.950058E-05    6.573228E-07    1.073142E-08    1.348429E-10    1.348619E-12    1.065354E-14    5.124326E-17   -7.915094E-19
        -5.084888E-20
  17    -1.077388E-20   -2.422660E-19    3.506657E-18    1.458680E-15    2.014995E-13    2.131200E-11    1.792477E-09    1.169464E-07    5.661049E-06    1.918901E-04
         4.235375E-03    5.581896E-02    0.404614         1.59247         4.21447         5.74085         4.21447         1.59247        0.404614        5.581896E-02
         4.235375E-03    1.918901E-04    5.661049E-06    1.169464E-07    1.792477E-09    2.131200E-11    2.014995E-13    1.458678E-15    3.506533E-18   -2.422717E-19
        -1.077410E-20
  18    -1.405394E-21   -3.966853E-20   -5.038063E-19    7.489540E-17    1.289161E-14    1.478240E-12    1.327078E-10    9.294318E-09    4.900443E-07    1.850971E-05
         4.715984E-04    7.580185E-03    7.267330E-02    0.417462         1.59247         3.38975         1.59247        0.417462        7.267330E-02    7.580185E-03
         4.715984E-04    1.850971E-05    4.900443E-07    9.294318E-09    1.327078E-10    1.478240E-12    1.289158E-14    7.489417E-17   -5.038757E-19   -3.967162E-20
        -1.405511E-21
  19    -1.223734E-22   -3.923976E-21   -9.543593E-20    7.964369E-19    4.587137E-16    6.072295E-14    5.939706E-12    4.519844E-10    2.625701E-08    1.120532E-06
         3.353199E-05    6.710312E-04    8.679461E-03    7.267330E-02    0.404614         1.15621        0.404614        7.267330E-02    8.679461E-03    6.710312E-04
         3.353199E-05    1.120532E-06    2.625701E-08    4.519844E-10    5.939705E-12    6.072286E-14    4.587077E-16    7.960361E-19   -9.545716E-20   -3.924853E-21
        -1.224041E-22
  20    -7.678674E-24   -2.738683E-22   -8.387801E-21   -1.579749E-19    7.723309E-18    1.605766E-15    1.784023E-13    1.496207E-11    9.638295E-10    4.659334E-08
         1.633229E-06    4.009287E-05    6.710312E-04    7.580185E-03    5.581896E-02    0.199465        5.581896E-02    7.580185E-03    6.710312E-04    4.009287E-05
         1.633229E-06    4.659334E-08    9.638295E-10    1.496207E-11    1.784022E-13    1.605748E-15    7.721637E-18   -1.580807E-19   -8.392540E-21   -2.740383E-22
        -7.683954E-24
  21    -3.489132E-25   -1.390642E-23   -4.946627E-22   -1.429432E-20   -1.771037E-19    2.466649E-17    3.712554E-15    3.532574E-13    2.538655E-11    1.383801E-09
         5.596735E-08    1.633229E-06    3.353199E-05    4.715984E-04    4.235375E-03    1.780820E-02    4.235375E-03    4.715984E-04    3.353199E-05    1.633229E-06
         5.596735E-08    1.383801E-09    2.538655E-11    3.532573E-13    3.712508E-15    2.466125E-17   -1.774844E-19   -1.431240E-20   -4.953310E-22   -1.392694E-23
        -3.494714E-25
  22    -1.154585E-26   -5.197083E-25   -2.121401E-23   -7.461456E-22   -2.035770E-20   -1.122306E-19    4.910562E-17    6.019366E-15    4.921700E-13    3.015775E-11
         1.383801E-09    4.659334E-08    1.120532E-06    1.850971E-05    1.918901E-04    9.104708E-04    1.918901E-04    1.850971E-05    1.120532E-06    4.659334E-08
         1.383801E-09    3.015775E-11    4.921698E-13    6.019281E-15    4.909395E-17   -1.131801E-19   -2.040578E-20   -7.479893E-22   -2.127152E-23   -5.212359E-25
        -1.158232E-26
  23    -2.803314E-28   -1.442137E-26   -6.795199E-25   -2.806223E-23   -9.771329E-22   -2.510205E-20   -6.895427E-22    6.807528E-17    7.050068E-15    4.921700E-13
         2.538655E-11    9.638295E-10    2.625701E-08    4.900443E-07    5.661049E-06    2.950058E-05    5.661049E-06    4.900443E-07    2.625701E-08    9.638295E-10
         2.538655E-11    4.921698E-13    7.049959E-15    6.805757E-17   -2.339952E-21   -2.519331E-20   -9.808352E-22   -2.818123E-23   -6.827004E-25   -1.449483E-26
        -2.818712E-28
  24    -5.001469E-30   -2.981855E-28   -1.642122E-26   -7.983804E-25   -3.324735E-23   -1.137996E-21   -2.761054E-20    5.537162E-20    6.807599E-17    6.019371E-15
         3.532574E-13    1.496207E-11    4.519844E-10    9.294318E-09    1.169464E-07    6.573228E-07    1.169464E-07    9.294318E-09    4.519844E-10    1.496207E-11
         3.532573E-13    6.019281E-15    6.805757E-17    5.334252E-20   -2.773743E-20   -1.143601E-21   -3.343722E-23   -8.035712E-25   -1.654050E-26   -3.005739E-28
        -5.045189E-30
  25    -6.498149E-32   -4.574403E-30   -2.999704E-28   -1.742991E-26   -8.680746E-25   -3.599924E-23   -1.195254E-21   -2.760628E-20   -5.652686E-22    4.910704E-17
         3.712559E-15    1.784023E-13    5.939706E-12    1.327078E-10    1.792477E-09    1.073142E-08    1.792477E-09    1.327078E-10    5.939705E-12    1.784022E-13
         3.712508E-15    4.909395E-17   -2.339952E-21   -2.773743E-20   -1.201803E-21   -3.624033E-23   -8.749831E-25   -1.759063E-26   -3.031234E-28   -4.628532E-30
        -6.583654E-32
  26    -6.001679E-34   -5.131129E-32   -4.124725E-30   -2.936194E-28   -1.778680E-26   -8.904207E-25   -3.599256E-23   -1.137650E-21   -2.509262E-20   -1.120863E-19
         2.466751E-17    1.605769E-15    6.072296E-14    1.478240E-12    2.131200E-11    1.348429E-10    2.131200E-11    1.478240E-12    6.072286E-14    1.605748E-15
         2.466125E-17   -1.131801E-19   -2.519331E-20   -1.143601E-21   -3.624033E-23   -8.981227E-25   -1.797342E-26   -2.972775E-28   -4.184938E-30   -5.217898E-32
        -6.117644E-34
  27    -3.750571E-36   -4.085653E-34   -4.226318E-32   -3.832156E-30   -2.900085E-28   -1.778246E-26   -8.677201E-25   -3.323116E-23   -9.766658E-22   -2.034934E-20
        -1.770193E-19    7.723710E-18    4.587148E-16    1.289161E-14    2.014995E-13    1.348619E-12    2.014995E-13    1.289158E-14    4.587077E-16    7.721637E-18
        -1.774844E-19   -2.040578E-20   -9.808352E-22   -3.343722E-23   -8.749831E-25   -1.797342E-26   -2.938866E-28   -3.894977E-30   -4.310565E-32   -4.183992E-34
        -3.858278E-36
  28    -1.428990E-38   -2.184659E-36   -3.178680E-34   -3.905638E-32   -3.830904E-30   -2.934604E-28   -1.741841E-26   -7.978344E-25   -2.804495E-23   -7.457929E-22
        -1.429001E-20   -1.579466E-19    7.965304E-19    7.489561E-17    1.458680E-15    1.065354E-14    1.458678E-15    7.489417E-17    7.960361E-19   -1.580807E-19
        -1.431240E-20   -7.479893E-22   -2.818123E-23   -8.035712E-25   -1.759063E-26   -2.972775E-28   -3.894977E-30   -3.989059E-32   -3.265779E-34   -2.262210E-36
        -1.494898E-38
  29    -2.485354E-41   -7.023910E-39   -1.733062E-36   -3.177147E-34   -4.223145E-32   -4.121039E-30   -2.996894E-28   -1.640664E-26   -6.790069E-25   -2.120218E-23
        -4.944949E-22   -8.386470E-21   -9.543048E-20   -5.037934E-19    3.506673E-18    5.124326E-17    3.506533E-18   -5.038757E-19   -9.545716E-20   -8.392540E-21
        -4.953310E-22   -2.127152E-23   -6.827004E-25   -1.654050E-26   -3.031234E-28   -4.184938E-30   -4.310565E-32   -3.265779E-34   -1.800687E-36   -7.436763E-39
        -2.729639E-41
  30     6.469483E-45   -1.018232E-41   -7.017005E-39   -2.182017E-36   -4.080353E-34   -5.124433E-32   -4.568735E-30   -2.978577E-28   -1.440850E-26   -5.193752E-25
        -1.390105E-23   -2.738190E-22   -3.923740E-21   -3.966792E-20   -2.422653E-19   -7.915094E-19   -2.422717E-19   -3.967162E-20   -3.924853E-21   -2.740383E-22
        -1.392694E-23   -5.212359E-25   -1.449483E-26   -3.005739E-28   -4.628532E-30   -5.217898E-32   -4.183992E-34   -2.262210E-36   -7.436763E-39   -1.164440E-41
         1.967637E-45
  31      0.00000        6.560786E-45   -2.476903E-41   -1.425662E-38   -3.743091E-36   -5.990999E-34   -6.487972E-32   -4.994876E-30   -2.800423E-28   -1.153750E-26
        -3.487621E-25   -7.677102E-24   -1.223649E-22   -1.405370E-21   -1.077385E-20   -5.084888E-20   -1.077410E-20   -1.405511E-21   -1.224041E-22   -7.683954E-24
        -3.494714E-25   -1.158232E-26   -2.818712E-28   -5.045189E-30   -6.583654E-32   -6.117644E-34   -3.858278E-36   -1.494898E-38   -2.729639E-41    1.967637E-45
          0.00000    

 CONCENTRATION WILL BE SAVED ON UNIT 1030 AT END OF TIME STEP   81, STRESS PERIOD    2


  MASS BUDGET FOR ENTIRE MODEL AT END OF TIME STEP   81, STRESS PERIOD   2
  ---------------------------------------------------------------------------------------------------

     CUMULATIVE MASS      M       RATES FOR THIS TIME STEP      M/T          PACKAGE NAME    
     ------------------                 ------------------------                     ----------------

           IN:                                      IN:
           ---                                      ---
     STORAGE-AQUEOUS =  7406119750.1291       STORAGE-AQUEOUS =      641205.8040     MST                              
                 WEL =  7884000000.0000                   WEL =           0.0000     SSM_WEL-1                        
                 CHD =           0.0000                   CHD =           0.0000     SSM_CHD-1                        

            TOTAL IN = 15290119750.1291              TOTAL IN =      641205.8040

          OUT:                                     OUT:
          ----                                     ----
     STORAGE-AQUEOUS =  7888717697.7098       STORAGE-AQUEOUS =           6.7326     MST                              
                 WEL =  7401402052.4194                   WEL =      641199.0713     SSM_WEL-1                        
                 CHD =       7.5562E-18                   CHD =           0.0000     SSM_CHD-1                        

           TOTAL OUT = 15290119750.1292             TOTAL OUT =      641205.8040

            IN - OUT =      -1.4114E-04              IN - OUT =      -1.7765E-07

 PERCENT DISCREPANCY =          -0.00     PERCENT DISCREPANCY =          -0.00




         TIME SUMMARY AT END OF TIME STEP   81 IN STRESS PERIOD    2
                    SECONDS     MINUTES      HOURS       DAYS        YEARS
                    -----------------------------------------------------------
   TIME STEP LENGTH 2.16991E+06  36165.      602.75      25.115     6.87602E-02
 STRESS PERIOD TIME 1.75763E+08 2.92938E+06  48823.      2034.3      5.5696    
         TOTAL TIME 2.54603E+08 4.24338E+06  70723.      2946.8      8.0679    


end timestep


start timestep kper="2" kstp="82" mode="normal"

 UBDSV1 SAVING  STORAGE-AQUEOUS ON UNIT   1029 AT TIME STEP     82, STRESS PERIOD      2
 UBDSV1 SAVING     FLOW-JA-FACE ON UNIT   1029 AT TIME STEP     82, STRESS PERIOD      2
 UBDSV06 SAVING  SOURCE-SINK MIX IN MODEL GWT_P06-MF6      PACKAGE GWT_P06-MF6     CONNECTED TO MODEL GWT_P06-MF6      PACKAGE SSM              ON UNIT   1029 AT TIME STEP     82, STRESS PERIOD      2
1
  CONCENTRATION IN LAYER   1 AT END OF TIME STEP  82 IN STRESS PERIOD    2
  ---------------------------------------------------------------------------

                1               2               3               4               5               6               7               8               9              10
               11              12              13              14              15              16              17              18              19              20
               21              22              23              24              25              26              27              28              29              30
               31
 ................................................................................................................................................................................................................................................................................................................................................................................................................................................................................................................
   1      0.00000       -8.904040E-46   -3.011166E-41   -1.602188E-38   -4.087298E-36   -6.432023E-34   -6.880429E-32   -5.244696E-30   -2.915838E-28   -1.192647E-26
        -3.583263E-25   -7.848566E-24   -1.245919E-22   -1.425046E-21   -1.086913E-20   -5.094668E-20   -1.086890E-20   -1.424928E-21   -1.245608E-22   -7.843212E-24
        -3.577585E-25   -1.188923E-26   -2.900053E-28   -5.199693E-30   -6.792038E-32   -6.311625E-34   -3.974980E-36   -1.533141E-38   -2.753951E-41    3.878331E-45
          0.00000    
   2    -8.904040E-46   -1.305615E-41   -7.991519E-39   -2.397002E-36   -4.397765E-34   -5.451720E-32   -4.811235E-30   -3.109763E-28   -1.493014E-26   -5.346223E-25
        -1.422657E-23   -2.787777E-22   -3.971917E-21   -3.977898E-20   -2.382782E-19   -7.514037E-19   -2.382725E-19   -3.977587E-20   -3.971032E-21   -2.786058E-22
        -1.420575E-23   -5.330677E-25   -1.485510E-26   -3.085268E-28   -4.755501E-30   -5.362029E-32   -4.295713E-34   -2.316200E-36   -7.559477E-39   -1.151811E-41
         3.975731E-45
   3    -3.011166E-41   -7.991519E-39   -1.908281E-36   -3.431887E-34   -4.502321E-32   -4.349122E-30   -3.135896E-28   -1.703874E-26   -7.003733E-25   -2.173172E-23
        -5.036146E-22   -8.466041E-21   -9.434669E-20   -4.474777E-19    4.457547E-18    5.758592E-17    4.457671E-18   -4.474080E-19   -9.432534E-20   -8.461266E-21
        -5.029391E-22   -2.167338E-23   -6.971348E-25   -1.691683E-26   -3.103549E-28   -4.287120E-30   -4.415254E-32   -3.341535E-34   -1.837847E-36   -7.552213E-39
        -2.744999E-41
   4    -1.602188E-38   -2.397002E-36   -3.431887E-34   -4.165903E-32   -4.046960E-30   -3.074920E-28   -1.811934E-26   -8.244004E-25   -2.879063E-23   -7.599356E-22
        -1.437020E-20   -1.511014E-19    1.134948E-18    8.344996E-17    1.582587E-15    1.142652E-14    1.582589E-15    8.345119E-17    1.135348E-18   -1.509952E-19
        -1.435199E-20   -7.580718E-22   -2.866987E-23   -8.191131E-25   -1.795503E-26   -3.037387E-28   -3.982274E-30   -4.079696E-32   -3.339939E-34   -2.313434E-36
        -1.529637E-38
   5    -4.087298E-36   -4.397765E-34   -4.502321E-32   -4.046960E-30   -3.039611E-28   -1.851218E-26   -8.976250E-25   -3.415680E-23   -9.956371E-22   -2.036651E-20
        -1.553083E-19    8.955143E-18    5.018328E-16    1.387478E-14    2.146947E-13    1.425758E-12    2.146948E-13    1.387480E-14    5.018387E-16    8.956807E-18
        -1.549267E-19   -2.031809E-20   -9.918937E-22   -3.396407E-23   -8.905866E-25   -1.832136E-26   -2.999818E-28   -3.980981E-30   -4.411965E-32   -4.290195E-34
        -3.967149E-36
   6    -6.432023E-34   -5.451720E-32   -4.349122E-30   -3.074920E-28   -1.851218E-26   -9.213387E-25   -3.701689E-23   -1.160023E-21   -2.499512E-20   -6.603155E-20
         2.774389E-17    1.744452E-15    6.507220E-14    1.568931E-12    2.244003E-11    1.409738E-10    2.244003E-11    1.568931E-12    6.507229E-14    1.744470E-15
         2.774909E-17   -6.508039E-20   -2.490322E-20   -1.154354E-21   -3.677213E-23   -9.134911E-25   -1.831692E-26   -3.035753E-28   -4.283317E-30   -5.355090E-32
        -6.300504E-34
   7    -6.880429E-32   -4.811235E-30   -3.135896E-28   -1.811934E-26   -8.976250E-25   -3.701689E-23   -1.218717E-21   -2.741295E-20    7.022370E-20    5.463336E-17
         4.018430E-15    1.906408E-13    6.285368E-12    1.392488E-10    1.866633E-09    1.109786E-08    1.866633E-09    1.392488E-10    6.285369E-12    1.906409E-13
         4.018475E-15    5.464494E-17    7.187659E-20   -2.728516E-20   -1.212094E-21   -3.676535E-23   -8.902251E-25   -1.794326E-26   -3.100662E-28   -4.749655E-30
        -6.781495E-32
   8    -5.244696E-30   -3.109763E-28   -1.703874E-26   -8.244004E-25   -3.415680E-23   -1.160023E-21   -2.741295E-20    1.368539E-19    7.543049E-17    6.502940E-15
         3.768051E-13    1.579736E-11    4.728830E-10    9.643643E-09    1.204346E-07    6.722942E-07    1.204346E-07    9.643643E-09    4.728830E-10    1.579736E-11
         3.768053E-13    6.503024E-15    7.544804E-17    1.388859E-19   -2.728086E-20   -1.154004E-21   -3.394763E-23   -8.185566E-25   -1.690191E-26   -3.081901E-28
        -5.192896E-30
   9    -2.915838E-28   -1.493014E-26   -7.003733E-25   -2.879063E-23   -9.956371E-22   -2.499512E-20    7.022370E-20    7.543049E-17    7.611924E-15    5.245026E-13
         2.676578E-11    1.006217E-09    2.716087E-08    5.026859E-07    5.763967E-06    2.983534E-05    5.763967E-06    5.026859E-07    2.716087E-08    1.006217E-09
         2.676578E-11    5.245028E-13    7.612032E-15    7.544875E-17    7.200100E-20   -2.489373E-20   -9.914212E-22   -2.865234E-23   -6.966122E-25   -1.484194E-26
        -2.897087E-28
  10    -1.192647E-26   -5.346223E-25   -2.173172E-23   -7.599356E-22   -2.036651E-20   -6.603155E-20    5.463336E-17    6.502940E-15    5.245026E-13    3.178075E-11
         1.442981E-09    4.809711E-08    1.145805E-06    1.876735E-05    1.931366E-04    9.104525E-04    1.931366E-04    1.876735E-05    1.145805E-06    4.809711E-08
         1.442981E-09    3.178075E-11    5.245028E-13    6.503030E-15    5.464634E-17   -6.493597E-20   -2.030967E-20   -7.577153E-22   -2.166138E-23   -5.327286E-25
        -1.188070E-26
  11    -3.583263E-25   -1.422657E-23   -5.036146E-22   -1.437020E-20   -1.553083E-19    2.774389E-17    4.018430E-15    3.768051E-13    2.676578E-11    1.442981E-09
         5.773094E-08    1.667039E-06    3.389218E-05    4.725918E-04    4.214141E-03    1.761162E-02    4.214141E-03    4.725918E-04    3.389218E-05    1.667039E-06
         5.773094E-08    1.442981E-09    2.676578E-11    3.768053E-13    4.018480E-15    2.775010E-17   -1.548421E-19   -1.434765E-20   -5.027696E-22   -1.420031E-23
        -3.576048E-25
  12    -7.848566E-24   -2.787777E-22   -8.466041E-21   -1.511014E-19    8.955143E-18    1.744452E-15    1.906408E-13    1.579736E-11    1.006217E-09    4.809711E-08
         1.667039E-06    4.047547E-05    6.705743E-04    7.510055E-03    5.493503E-02    0.195269        5.493503E-02    7.510055E-03    6.705743E-04    4.047547E-05
         1.667039E-06    4.809711E-08    1.006217E-09    1.579736E-11    1.906409E-13    1.744473E-15    8.957205E-18   -1.509668E-19   -8.459926E-21   -2.785560E-22
        -7.841618E-24
  13    -1.245919E-22   -3.971917E-21   -9.434669E-20    1.134948E-18    5.018328E-16    6.507220E-14    6.285368E-12    4.728830E-10    2.716087E-08    1.145805E-06
         3.389218E-05    6.705743E-04    8.583680E-03    7.126930E-02    0.394537         1.12303        0.394537        7.126930E-02    8.583680E-03    6.705743E-04
         3.389218E-05    1.145805E-06    2.716087E-08    4.728830E-10    6.285369E-12    6.507230E-14    5.018398E-16    1.135441E-18   -9.431987E-20   -3.970795E-21
        -1.245522E-22
  14    -1.425046E-21   -3.977898E-20   -4.474777E-19    8.344996E-17    1.387478E-14    1.568931E-12    1.392488E-10    9.643643E-09    5.026859E-07    1.876735E-05
         4.725918E-04    7.510055E-03    7.126930E-02    0.406279         1.54333         3.27843         1.54333        0.406279        7.126930E-02    7.510055E-03
         4.725918E-04    1.876735E-05    5.026859E-07    9.643643E-09    1.392488E-10    1.568931E-12    1.387480E-14    8.345140E-17   -4.473949E-19   -3.977526E-20
        -1.424904E-21
  15    -1.086913E-20   -2.382782E-19    4.457547E-18    1.582587E-15    2.146947E-13    2.244003E-11    1.866633E-09    1.204346E-07    5.763967E-06    1.931366E-04
         4.214141E-03    5.493503E-02    0.394537         1.54333         4.07344         5.54445         4.07344         1.54333        0.394537        5.493503E-02
         4.214141E-03    1.931366E-04    5.763967E-06    1.204346E-07    1.866633E-09    2.244003E-11    2.146948E-13    1.582589E-15    4.457687E-18   -2.382718E-19
        -1.086887E-20
  16    -5.094668E-20   -7.514037E-19    5.758592E-17    1.142652E-14    1.425758E-12    1.409738E-10    1.109786E-08    6.722942E-07    2.983534E-05    9.104525E-04
         1.761162E-02    0.195269         1.12303         3.27843         5.54445         7.16316         5.54445         3.27843         1.12303        0.195269    
         1.761162E-02    9.104525E-04    2.983534E-05    6.722942E-07    1.109786E-08    1.409738E-10    1.425758E-12    1.142652E-14    5.758592E-17   -7.514037E-19
        -5.094668E-20
  17    -1.086890E-20   -2.382725E-19    4.457671E-18    1.582589E-15    2.146948E-13    2.244003E-11    1.866633E-09    1.204346E-07    5.763967E-06    1.931366E-04
         4.214141E-03    5.493503E-02    0.394537         1.54333         4.07344         5.54445         4.07344         1.54333        0.394537        5.493503E-02
         4.214141E-03    1.931366E-04    5.763967E-06    1.204346E-07    1.866633E-09    2.244003E-11    2.146947E-13    1.582587E-15    4.457547E-18   -2.382782E-19
        -1.086913E-20
  18    -1.424928E-21   -3.977587E-20   -4.474080E-19    8.345119E-17    1.387480E-14    1.568931E-12    1.392488E-10    9.643643E-09    5.026859E-07    1.876735E-05
         4.725918E-04    7.510055E-03    7.126930E-02    0.406279         1.54333         3.27843         1.54333        0.406279        7.126930E-02    7.510055E-03
         4.725918E-04    1.876735E-05    5.026859E-07    9.643643E-09    1.392488E-10    1.568931E-12    1.387478E-14    8.344996E-17   -4.474776E-19   -3.977898E-20
        -1.425046E-21
  19    -1.245608E-22   -3.971032E-21   -9.432534E-20    1.135348E-18    5.018387E-16    6.507229E-14    6.285369E-12    4.728830E-10    2.716087E-08    1.145805E-06
         3.389218E-05    6.705743E-04    8.583680E-03    7.126930E-02    0.394537         1.12303        0.394537        7.126930E-02    8.583680E-03    6.705743E-04
         3.389218E-05    1.145805E-06    2.716087E-08    4.728830E-10    6.285368E-12    6.507220E-14    5.018328E-16    1.134948E-18   -9.434669E-20   -3.971917E-21
        -1.245919E-22
  20    -7.843212E-24   -2.786058E-22   -8.461266E-21   -1.509952E-19    8.956807E-18    1.744470E-15    1.906409E-13    1.579736E-11    1.006217E-09    4.809711E-08
         1.667039E-06    4.047547E-05    6.705743E-04    7.510055E-03    5.493503E-02    0.195269        5.493503E-02    7.510055E-03    6.705743E-04    4.047547E-05
         1.667039E-06    4.809711E-08    1.006217E-09    1.579736E-11    1.906408E-13    1.744452E-15    8.955144E-18   -1.511014E-19   -8.466041E-21   -2.787777E-22
        -7.848565E-24
  21    -3.577585E-25   -1.420575E-23   -5.029391E-22   -1.435199E-20   -1.549267E-19    2.774909E-17    4.018475E-15    3.768053E-13    2.676578E-11    1.442981E-09
         5.773094E-08    1.667039E-06    3.389218E-05    4.725918E-04    4.214141E-03    1.761162E-02    4.214141E-03    4.725918E-04    3.389218E-05    1.667039E-06
         5.773094E-08    1.442981E-09    2.676578E-11    3.768051E-13    4.018430E-15    2.774389E-17   -1.553083E-19   -1.437020E-20   -5.036146E-22   -1.422657E-23
        -3.583263E-25
  22    -1.188923E-26   -5.330677E-25   -2.167338E-23   -7.580718E-22   -2.031809E-20   -6.508039E-20    5.464494E-17    6.503024E-15    5.245028E-13    3.178075E-11
         1.442981E-09    4.809711E-08    1.145805E-06    1.876735E-05    1.931366E-04    9.104525E-04    1.931366E-04    1.876735E-05    1.145805E-06    4.809711E-08
         1.442981E-09    3.178075E-11    5.245026E-13    6.502940E-15    5.463336E-17   -6.603155E-20   -2.036651E-20   -7.599356E-22   -2.173172E-23   -5.346223E-25
        -1.192647E-26
  23    -2.900053E-28   -1.485510E-26   -6.971348E-25   -2.866987E-23   -9.918937E-22   -2.490322E-20    7.187659E-20    7.544804E-17    7.612032E-15    5.245028E-13
         2.676578E-11    1.006217E-09    2.716087E-08    5.026859E-07    5.763967E-06    2.983534E-05    5.763967E-06    5.026859E-07    2.716087E-08    1.006217E-09
         2.676578E-11    5.245026E-13    7.611924E-15    7.543049E-17    7.022370E-20   -2.499512E-20   -9.956371E-22   -2.879063E-23   -7.003733E-25   -1.493014E-26
        -2.915838E-28
  24    -5.199693E-30   -3.085268E-28   -1.691683E-26   -8.191131E-25   -3.396407E-23   -1.154354E-21   -2.728516E-20    1.388859E-19    7.544875E-17    6.503030E-15
         3.768053E-13    1.579736E-11    4.728830E-10    9.643643E-09    1.204346E-07    6.722942E-07    1.204346E-07    9.643643E-09    4.728830E-10    1.579736E-11
         3.768051E-13    6.502940E-15    7.543049E-17    1.368539E-19   -2.741295E-20   -1.160023E-21   -3.415680E-23   -8.244004E-25   -1.703874E-26   -3.109763E-28
        -5.244696E-30
  25    -6.792038E-32   -4.755501E-30   -3.103549E-28   -1.795503E-26   -8.905866E-25   -3.677213E-23   -1.212094E-21   -2.728086E-20    7.200100E-20    5.464634E-17
         4.018480E-15    1.906409E-13    6.285369E-12    1.392488E-10    1.866633E-09    1.109786E-08    1.866633E-09    1.392488E-10    6.285368E-12    1.906408E-13
         4.018430E-15    5.463336E-17    7.022370E-20   -2.741295E-20   -1.218717E-21   -3.701689E-23   -8.976250E-25   -1.811934E-26   -3.135896E-28   -4.811235E-30
        -6.880429E-32
  26    -6.311625E-34   -5.362029E-32   -4.287120E-30   -3.037387E-28   -1.832136E-26   -9.134911E-25   -3.676535E-23   -1.154004E-21   -2.489373E-20   -6.493597E-20
         2.775010E-17    1.744473E-15    6.507230E-14    1.568931E-12    2.244003E-11    1.409738E-10    2.244003E-11    1.568931E-12    6.507220E-14    1.744452E-15
         2.774389E-17   -6.603155E-20   -2.499512E-20   -1.160023E-21   -3.701689E-23   -9.213387E-25   -1.851218E-26   -3.074920E-28   -4.349122E-30   -5.451720E-32
        -6.432023E-34
  27    -3.974980E-36   -4.295713E-34   -4.415254E-32   -3.982274E-30   -2.999818E-28   -1.831692E-26   -8.902251E-25   -3.394763E-23   -9.914212E-22   -2.030967E-20
        -1.548421E-19    8.957205E-18    5.018398E-16    1.387480E-14    2.146948E-13    1.425758E-12    2.146947E-13    1.387478E-14    5.018328E-16    8.955144E-18
        -1.553083E-19   -2.036651E-20   -9.956371E-22   -3.415680E-23   -8.976250E-25   -1.851218E-26   -3.039611E-28   -4.046960E-30   -4.502321E-32   -4.397765E-34
        -4.087298E-36
  28    -1.533141E-38   -2.316200E-36   -3.341535E-34   -4.079696E-32   -3.980981E-30   -3.035753E-28   -1.794326E-26   -8.185566E-25   -2.865234E-23   -7.577153E-22
        -1.434765E-20   -1.509668E-19    1.135441E-18    8.345140E-17    1.582589E-15    1.142652E-14    1.582587E-15    8.344996E-17    1.134948E-18   -1.511014E-19
        -1.437020E-20   -7.599356E-22   -2.879063E-23   -8.244004E-25   -1.811934E-26   -3.074920E-28   -4.046960E-30   -4.165903E-32   -3.431887E-34   -2.397002E-36
        -1.602187E-38
  29    -2.753951E-41   -7.559477E-39   -1.837847E-36   -3.339939E-34   -4.411965E-32   -4.283317E-30   -3.100662E-28   -1.690191E-26   -6.966122E-25   -2.166138E-23
        -5.027696E-22   -8.459926E-21   -9.431987E-20   -4.473949E-19    4.457687E-18    5.758592E-17    4.457547E-18   -4.474776E-19   -9.434669E-20   -8.466041E-21
        -5.036146E-22   -2.173172E-23   -7.003733E-25   -1.703874E-26   -3.135896E-28   -4.349122E-30   -4.502321E-32   -3.431887E-34   -1.908281E-36   -7.991519E-39
        -3.011166E-41
  30     3.878331E-45   -1.151811E-41   -7.552213E-39   -2.313434E-36   -4.290195E-34   -5.355090E-32   -4.749655E-30   -3.081901E-28   -1.484194E-26   -5.327286E-25
        -1.420031E-23   -2.785560E-22   -3.970795E-21   -3.977526E-20   -2.382718E-19   -7.514037E-19   -2.382782E-19   -3.977898E-20   -3.971917E-21   -2.787777E-22
        -1.422657E-23   -5.346223E-25   -1.493014E-26   -3.109763E-28   -4.811235E-30   -5.451720E-32   -4.397765E-34   -2.397002E-36   -7.991519E-39   -1.305615E-41
        -8.904029E-46
  31      0.00000        3.975731E-45   -2.744999E-41   -1.529637E-38   -3.967149E-36   -6.300504E-34   -6.781495E-32   -5.192896E-30   -2.897087E-28   -1.188070E-26
        -3.576048E-25   -7.841618E-24   -1.245522E-22   -1.424904E-21   -1.086887E-20   -5.094668E-20   -1.086913E-20   -1.425046E-21   -1.245919E-22   -7.848565E-24
        -3.583263E-25   -1.192647E-26   -2.915838E-28   -5.244696E-30   -6.880429E-32   -6.432023E-34   -4.087298E-36   -1.602187E-38   -3.011166E-41   -8.904029E-46
          0.00000    

 CONCENTRATION WILL BE SAVED ON UNIT 1030 AT END OF TIME STEP   82, STRESS PERIOD    2


  MASS BUDGET FOR ENTIRE MODEL AT END OF TIME STEP   82, STRESS PERIOD   2
  ---------------------------------------------------------------------------------------------------

     CUMULATIVE MASS      M       RATES FOR THIS TIME STEP      M/T          PACKAGE NAME    
     ------------------                 ------------------------                     ----------------

           IN:                                      IN:
           ---                                      ---
     STORAGE-AQUEOUS =  7421663300.9195       STORAGE-AQUEOUS =      618903.0269     MST                              
                 WEL =  7884000000.0000                   WEL =           0.0000     SSM_WEL-1                        
                 CHD =           0.0000                   CHD =           0.0000     SSM_CHD-1                        

            TOTAL IN = 15305663300.9195              TOTAL IN =      618903.0269

          OUT:                                     OUT:
          ----                                     ----
     STORAGE-AQUEOUS =  7888717852.2067       STORAGE-AQUEOUS =           6.1517     MST                              
                 WEL =  7416945448.7130                   WEL =      618896.8752     SSM_WEL-1                        
                 CHD =       7.5562E-18                   CHD =           0.0000     SSM_CHD-1                        

           TOTAL OUT = 15305663300.9197             TOTAL OUT =      618903.0269

            IN - OUT =      -1.4687E-04              IN - OUT =      -1.6997E-07

 PERCENT DISCREPANCY =          -0.00     PERCENT DISCREPANCY =          -0.00




         TIME SUMMARY AT END OF TIME STEP   82 IN STRESS PERIOD    2
                    SECONDS     MINUTES      HOURS       DAYS        YEARS
                    -----------------------------------------------------------
   TIME STEP LENGTH 2.16991E+06  36165.      602.75      25.115     6.87602E-02
 STRESS PERIOD TIME 1.77932E+08 2.96554E+06  49426.      2059.4      5.6383    
         TOTAL TIME 2.56772E+08 4.27954E+06  71326.      2971.9      8.1366    


end timestep


start timestep kper="2" kstp="83" mode="normal"

 UBDSV1 SAVING  STORAGE-AQUEOUS ON UNIT   1029 AT TIME STEP     83, STRESS PERIOD      2
 UBDSV1 SAVING     FLOW-JA-FACE ON UNIT   1029 AT TIME STEP     83, STRESS PERIOD      2
 UBDSV06 SAVING  SOURCE-SINK MIX IN MODEL GWT_P06-MF6      PACKAGE GWT_P06-MF6     CONNECTED TO MODEL GWT_P06-MF6      PACKAGE SSM              ON UNIT   1029 AT TIME STEP     83, STRESS PERIOD      2
1
  CONCENTRATION IN LAYER   1 AT END OF TIME STEP  83 IN STRESS PERIOD    2
  ---------------------------------------------------------------------------

                1               2               3               4               5               6               7               8               9              10
               11              12              13              14              15              16              17              18              19              20
               21              22              23              24              25              26              27              28              29              30
               31
 ................................................................................................................................................................................................................................................................................................................................................................................................................................................................................................................
   1      0.00000       -4.045400E-45   -3.312769E-41   -1.715765E-38   -4.327901E-36   -6.760328E-34   -7.188726E-32   -5.450947E-30   -3.015788E-28   -1.227909E-26
        -3.673623E-25   -8.015828E-24   -1.268016E-22   -1.444541E-21   -1.096084E-20   -5.101795E-20   -1.096061E-20   -1.444422E-21   -1.267701E-22   -8.010400E-24
        -3.667848E-25   -1.224108E-26   -2.999609E-28   -5.404628E-30   -7.097366E-32   -6.635350E-34   -4.210799E-36   -1.643447E-38   -3.042018E-41    1.004161E-45
          0.00000    
   2    -4.045400E-45   -1.457098E-41   -8.578863E-39   -2.538571E-36   -4.620944E-34   -5.694586E-32   -5.000119E-30   -3.216831E-28   -1.537629E-26   -5.482826E-25
        -1.453076E-23   -2.835454E-22   -4.017931E-21   -3.984688E-20   -2.336810E-19   -7.075452E-19   -2.336753E-19   -3.984374E-20   -4.017039E-21   -2.833717E-22
        -1.450966E-23   -5.467006E-25   -1.529963E-26   -3.191711E-28   -4.942741E-30   -5.601888E-32   -4.515058E-34   -2.454397E-36   -8.126840E-39   -1.295348E-41
         1.108016E-45
   3    -3.312769E-41   -8.578863E-39   -2.021271E-36   -3.605265E-34   -4.701455E-32   -4.518845E-30   -3.243624E-28   -1.754944E-26   -7.184075E-25   -2.219847E-23
        -5.118966E-22   -8.533961E-21   -9.299736E-20   -3.854218E-19    5.480328E-18    6.434661E-17    5.480452E-18   -3.853518E-19   -9.297590E-20   -8.529150E-21
        -5.112140E-22   -2.213930E-23   -7.151103E-25   -1.742485E-26   -3.210443E-28   -4.455009E-30   -4.611485E-32   -3.511552E-34   -1.947923E-36   -8.119199E-39
        -3.032538E-41
   4    -1.715765E-38   -2.538571E-36   -3.605265E-34   -4.349533E-32   -4.204053E-30   -3.180052E-28   -1.866127E-26   -8.456533E-25   -2.940799E-23   -7.717794E-22
        -1.441020E-20   -1.432070E-19    1.502392E-18    9.261477E-17    1.714134E-15    1.224079E-14    1.714137E-15    9.261600E-17    1.502791E-18   -1.431004E-19
        -1.439186E-20   -7.698954E-22   -2.928546E-23   -8.402682E-25   -1.849329E-26   -3.141547E-28   -4.137456E-30   -4.260457E-32   -3.509890E-34   -2.451504E-36
        -1.639759E-38
   5    -4.327901E-36   -4.620944E-34   -4.701455E-32   -4.204053E-30   -3.143298E-28   -1.906439E-26   -9.207245E-25   -3.488496E-23   -1.010169E-21   -2.028743E-20
        -1.306810E-19    1.028689E-17    5.478800E-16    1.491497E-14    2.285432E-13    1.506117E-12    2.285433E-13    1.491499E-14    5.478860E-16    1.028854E-17
        -1.302986E-19   -2.023869E-20   -1.006384E-21   -3.468935E-23   -9.135542E-25   -1.886930E-26   -3.102472E-28   -4.136122E-30   -4.608077E-32   -4.509314E-34
        -4.202604E-36
   6    -6.760328E-34   -5.694586E-32   -4.518845E-30   -3.180052E-28   -1.906439E-26   -9.450226E-25   -3.780216E-23   -1.176009E-21   -2.473062E-20   -1.407394E-20
         3.106338E-17    1.892174E-15    6.966025E-14    1.663778E-12    2.361034E-11    1.472866E-10    2.361034E-11    1.663778E-12    6.966034E-14    1.892192E-15
         3.106855E-17   -1.312118E-20   -2.463808E-20   -1.170277E-21   -3.755371E-23   -9.370272E-25   -1.886475E-26   -3.139867E-28   -4.451085E-30   -5.594698E-32
        -6.623772E-34
   7    -7.188726E-32   -5.000119E-30   -3.243624E-28   -1.866127E-26   -9.207245E-25   -3.780216E-23   -1.235126E-21   -2.700348E-20    1.499065E-19    6.058854E-17
         4.343632E-15    2.035203E-13    6.645735E-12    1.460080E-10    1.942629E-09    1.147043E-08    1.942629E-09    1.460080E-10    6.645735E-12    2.035204E-13
         4.343677E-15    6.060002E-17    1.515617E-19   -2.687480E-20   -1.228428E-21   -3.754682E-23   -9.131856E-25   -1.848125E-26   -3.207477E-28   -4.936711E-30
        -7.086445E-32
   8    -5.450947E-30   -3.216831E-28   -1.754944E-26   -8.456533E-25   -3.488496E-23   -1.176009E-21   -2.700348E-20    2.284624E-19    8.335038E-17    7.016488E-15
         4.015432E-13    1.666597E-11    4.944021E-10    9.999973E-09    1.239609E-07    6.872930E-07    1.239609E-07    9.999973E-09    4.944021E-10    1.666597E-11
         4.015434E-13    7.016571E-15    8.336778E-17    2.304970E-19   -2.687048E-20   -1.169923E-21   -3.467266E-23   -8.397009E-25   -1.740958E-26   -3.188255E-28
        -5.397622E-30
   9    -3.015788E-28   -1.537629E-26   -7.184075E-25   -2.940799E-23   -1.010169E-21   -2.473062E-20    1.499065E-19    8.335038E-17    8.208383E-15    5.584388E-13
         2.819759E-11    1.049741E-09    2.807899E-08    5.153899E-07    5.866242E-06    3.016331E-05    5.866242E-06    5.153899E-07    2.807899E-08    1.049741E-09
         2.819759E-11    5.584390E-13    8.208489E-15    8.336848E-17    1.516862E-19   -2.462852E-20   -1.005907E-21   -2.926766E-23   -7.145779E-25   -1.528618E-26
        -2.996566E-28
  10    -1.227909E-26   -5.482826E-25   -2.219847E-23   -7.717794E-22   -2.028743E-20   -1.407394E-20    6.058854E-17    7.016488E-15    5.584388E-13    3.346462E-11
         1.503653E-09    4.961988E-08    1.171064E-06    1.902085E-05    1.943289E-04    9.102135E-04    1.943289E-04    1.902085E-05    1.171064E-06    4.961988E-08
         1.503653E-09    3.346462E-11    5.584390E-13    7.016576E-15    6.060141E-17   -1.297660E-20   -2.023021E-20   -7.695350E-22   -2.212713E-23   -5.463554E-25
        -1.223236E-26
  11    -3.673623E-25   -1.453076E-23   -5.118966E-22   -1.441020E-20   -1.306810E-19    3.106338E-17    4.343632E-15    4.015432E-13    2.819759E-11    1.503653E-09
         5.951478E-08    1.700709E-06    3.424280E-05    4.734476E-04    4.192143E-03    1.741493E-02    4.192143E-03    4.734476E-04    3.424280E-05    1.700709E-06
         5.951478E-08    1.503653E-09    2.819759E-11    4.015434E-13    4.343682E-15    3.106955E-17   -1.302139E-19   -1.438749E-20   -5.110427E-22   -1.450414E-23
        -3.666285E-25
  12    -8.015828E-24   -2.835454E-22   -8.533961E-21   -1.432070E-19    1.028689E-17    1.892174E-15    2.035203E-13    1.666597E-11    1.049741E-09    4.961988E-08
         1.700709E-06    4.084582E-05    6.699291E-04    7.439245E-03    5.406014E-02    0.191157        5.406014E-02    7.439245E-03    6.699291E-04    4.084582E-05
         1.700709E-06    4.961988E-08    1.049741E-09    1.666597E-11    2.035204E-13    1.892195E-15    1.028893E-17   -1.430720E-19   -8.527801E-21   -2.833214E-22
        -8.008785E-24
  13    -1.268016E-22   -4.017931E-21   -9.299736E-20    1.502392E-18    5.478800E-16    6.966025E-14    6.645735E-12    4.944021E-10    2.807899E-08    1.171064E-06
         3.424280E-05    6.699291E-04    8.487526E-03    6.988796E-02    0.384716         1.09086        0.384716        6.988796E-02    8.487526E-03    6.699291E-04
         3.424280E-05    1.171064E-06    2.807899E-08    4.944021E-10    6.645735E-12    6.966035E-14    5.478871E-16    1.502884E-18   -9.297041E-20   -4.016800E-21
        -1.267614E-22
  14    -1.444541E-21   -3.984688E-20   -3.854218E-19    9.261477E-17    1.491497E-14    1.663778E-12    1.460080E-10    9.999973E-09    5.153899E-07    1.902085E-05
         4.734476E-04    7.439245E-03    6.988796E-02    0.395408         1.49582         3.17105         1.49582        0.395408        6.988796E-02    7.439245E-03
         4.734476E-04    1.902085E-05    5.153899E-07    9.999973E-09    1.460080E-10    1.663778E-12    1.491500E-14    9.261621E-17   -3.853387E-19   -3.984313E-20
        -1.444397E-21
  15    -1.096084E-20   -2.336810E-19    5.480328E-18    1.714134E-15    2.285432E-13    2.361034E-11    1.942629E-09    1.239609E-07    5.866242E-06    1.943289E-04
         4.192143E-03    5.406014E-02    0.384716         1.49582         3.93741         5.35523         3.93741         1.49582        0.384716        5.406014E-02
         4.192143E-03    1.943289E-04    5.866242E-06    1.239609E-07    1.942629E-09    2.361034E-11    2.285433E-13    1.714137E-15    5.480468E-18   -2.336746E-19
        -1.096058E-20
  16    -5.101795E-20   -7.075452E-19    6.434661E-17    1.224079E-14    1.506117E-12    1.472866E-10    1.147043E-08    6.872930E-07    3.016331E-05    9.102135E-04
         1.741493E-02    0.191157         1.09086         3.17105         5.35523         6.91458         5.35523         3.17105         1.09086        0.191157    
         1.741493E-02    9.102135E-04    3.016331E-05    6.872930E-07    1.147043E-08    1.472866E-10    1.506117E-12    1.224079E-14    6.434661E-17   -7.075452E-19
        -5.101795E-20
  17    -1.096061E-20   -2.336753E-19    5.480452E-18    1.714137E-15    2.285433E-13    2.361034E-11    1.942629E-09    1.239609E-07    5.866242E-06    1.943289E-04
         4.192143E-03    5.406014E-02    0.384716         1.49582         3.93741         5.35523         3.93741         1.49582        0.384716        5.406014E-02
         4.192143E-03    1.943289E-04    5.866242E-06    1.239609E-07    1.942629E-09    2.361034E-11    2.285432E-13    1.714134E-15    5.480328E-18   -2.336810E-19
        -1.096084E-20
  18    -1.444422E-21   -3.984374E-20   -3.853518E-19    9.261600E-17    1.491499E-14    1.663778E-12    1.460080E-10    9.999973E-09    5.153899E-07    1.902085E-05
         4.734476E-04    7.439245E-03    6.988796E-02    0.395408         1.49582         3.17105         1.49582        0.395408        6.988796E-02    7.439245E-03
         4.734476E-04    1.902085E-05    5.153899E-07    9.999973E-09    1.460080E-10    1.663778E-12    1.491497E-14    9.261477E-17   -3.854218E-19   -3.984688E-20
        -1.444541E-21
  19    -1.267701E-22   -4.017039E-21   -9.297590E-20    1.502791E-18    5.478860E-16    6.966034E-14    6.645735E-12    4.944021E-10    2.807899E-08    1.171064E-06
         3.424280E-05    6.699291E-04    8.487526E-03    6.988796E-02    0.384716         1.09086        0.384716        6.988796E-02    8.487526E-03    6.699291E-04
         3.424280E-05    1.171064E-06    2.807899E-08    4.944021E-10    6.645735E-12    6.966025E-14    5.478800E-16    1.502392E-18   -9.299736E-20   -4.017931E-21
        -1.268016E-22
  20    -8.010400E-24   -2.833717E-22   -8.529150E-21   -1.431004E-19    1.028854E-17    1.892192E-15    2.035204E-13    1.666597E-11    1.049741E-09    4.961988E-08
         1.700709E-06    4.084582E-05    6.699291E-04    7.439245E-03    5.406014E-02    0.191157        5.406014E-02    7.439245E-03    6.699291E-04    4.084582E-05
         1.700709E-06    4.961988E-08    1.049741E-09    1.666597E-11    2.035203E-13    1.892174E-15    1.028689E-17   -1.432070E-19   -8.533961E-21   -2.835454E-22
        -8.015828E-24
  21    -3.667848E-25   -1.450966E-23   -5.112140E-22   -1.439186E-20   -1.302986E-19    3.106855E-17    4.343677E-15    4.015434E-13    2.819759E-11    1.503653E-09
         5.951478E-08    1.700709E-06    3.424280E-05    4.734476E-04    4.192143E-03    1.741493E-02    4.192143E-03    4.734476E-04    3.424280E-05    1.700709E-06
         5.951478E-08    1.503653E-09    2.819759E-11    4.015432E-13    4.343632E-15    3.106338E-17   -1.306810E-19   -1.441020E-20   -5.118966E-22   -1.453076E-23
        -3.673623E-25
  22    -1.224108E-26   -5.467006E-25   -2.213930E-23   -7.698954E-22   -2.023869E-20   -1.312118E-20    6.060002E-17    7.016571E-15    5.584390E-13    3.346462E-11
         1.503653E-09    4.961988E-08    1.171064E-06    1.902085E-05    1.943289E-04    9.102135E-04    1.943289E-04    1.902085E-05    1.171064E-06    4.961988E-08
         1.503653E-09    3.346462E-11    5.584388E-13    7.016488E-15    6.058854E-17   -1.407394E-20   -2.028743E-20   -7.717794E-22   -2.219847E-23   -5.482826E-25
        -1.227909E-26
  23    -2.999609E-28   -1.529963E-26   -7.151103E-25   -2.928546E-23   -1.006384E-21   -2.463808E-20    1.515617E-19    8.336778E-17    8.208489E-15    5.584390E-13
         2.819759E-11    1.049741E-09    2.807899E-08    5.153899E-07    5.866242E-06    3.016331E-05    5.866242E-06    5.153899E-07    2.807899E-08    1.049741E-09
         2.819759E-11    5.584388E-13    8.208383E-15    8.335038E-17    1.499065E-19   -2.473062E-20   -1.010169E-21   -2.940799E-23   -7.184075E-25   -1.537629E-26
        -3.015788E-28
  24    -5.404628E-30   -3.191711E-28   -1.742485E-26   -8.402682E-25   -3.468935E-23   -1.170277E-21   -2.687480E-20    2.304970E-19    8.336848E-17    7.016576E-15
         4.015434E-13    1.666597E-11    4.944021E-10    9.999973E-09    1.239609E-07    6.872930E-07    1.239609E-07    9.999973E-09    4.944021E-10    1.666597E-11
         4.015432E-13    7.016488E-15    8.335038E-17    2.284624E-19   -2.700348E-20   -1.176009E-21   -3.488496E-23   -8.456533E-25   -1.754944E-26   -3.216831E-28
        -5.450947E-30
  25    -7.097366E-32   -4.942741E-30   -3.210443E-28   -1.849329E-26   -9.135542E-25   -3.755371E-23   -1.228428E-21   -2.687048E-20    1.516862E-19    6.060141E-17
         4.343682E-15    2.035204E-13    6.645735E-12    1.460080E-10    1.942629E-09    1.147043E-08    1.942629E-09    1.460080E-10    6.645735E-12    2.035203E-13
         4.343632E-15    6.058854E-17    1.499065E-19   -2.700348E-20   -1.235126E-21   -3.780216E-23   -9.207245E-25   -1.866127E-26   -3.243624E-28   -5.000119E-30
        -7.188726E-32
  26    -6.635350E-34   -5.601888E-32   -4.455009E-30   -3.141547E-28   -1.886930E-26   -9.370272E-25   -3.754682E-23   -1.169923E-21   -2.462852E-20   -1.297660E-20
         3.106955E-17    1.892195E-15    6.966035E-14    1.663778E-12    2.361034E-11    1.472866E-10    2.361034E-11    1.663778E-12    6.966025E-14    1.892174E-15
         3.106338E-17   -1.407394E-20   -2.473062E-20   -1.176009E-21   -3.780216E-23   -9.450226E-25   -1.906439E-26   -3.180052E-28   -4.518845E-30   -5.694586E-32
        -6.760328E-34
  27    -4.210799E-36   -4.515058E-34   -4.611485E-32   -4.137456E-30   -3.102472E-28   -1.886475E-26   -9.131856E-25   -3.467266E-23   -1.005907E-21   -2.023021E-20
        -1.302139E-19    1.028893E-17    5.478871E-16    1.491500E-14    2.285433E-13    1.506117E-12    2.285432E-13    1.491497E-14    5.478800E-16    1.028689E-17
        -1.306810E-19   -2.028743E-20   -1.010169E-21   -3.488496E-23   -9.207245E-25   -1.906439E-26   -3.143298E-28   -4.204053E-30   -4.701455E-32   -4.620944E-34
        -4.327901E-36
  28    -1.643447E-38   -2.454397E-36   -3.511552E-34   -4.260457E-32   -4.136122E-30   -3.139867E-28   -1.848125E-26   -8.397009E-25   -2.926766E-23   -7.695350E-22
        -1.438749E-20   -1.430720E-19    1.502884E-18    9.261621E-17    1.714137E-15    1.224079E-14    1.714134E-15    9.261477E-17    1.502392E-18   -1.432070E-19
        -1.441020E-20   -7.717794E-22   -2.940799E-23   -8.456533E-25   -1.866127E-26   -3.180052E-28   -4.204053E-30   -4.349533E-32   -3.605265E-34   -2.538571E-36
        -1.715765E-38
  29    -3.042018E-41   -8.126840E-39   -1.947923E-36   -3.509890E-34   -4.608077E-32   -4.451085E-30   -3.207477E-28   -1.740958E-26   -7.145779E-25   -2.212713E-23
        -5.110427E-22   -8.527801E-21   -9.297041E-20   -3.853387E-19    5.480468E-18    6.434661E-17    5.480328E-18   -3.854218E-19   -9.299736E-20   -8.533961E-21
        -5.118966E-22   -2.219847E-23   -7.184075E-25   -1.754944E-26   -3.243624E-28   -4.518845E-30   -4.701455E-32   -3.605265E-34   -2.021271E-36   -8.578863E-39
        -3.312769E-41
  30     1.004161E-45   -1.295348E-41   -8.119199E-39   -2.451504E-36   -4.509314E-34   -5.594698E-32   -4.936711E-30   -3.188255E-28   -1.528618E-26   -5.463554E-25
        -1.450414E-23   -2.833214E-22   -4.016800E-21   -3.984313E-20   -2.336746E-19   -7.075452E-19   -2.336810E-19   -3.984688E-20   -4.017931E-21   -2.835454E-22
        -1.453076E-23   -5.482826E-25   -1.537629E-26   -3.216831E-28   -5.000119E-30   -5.694586E-32   -4.620944E-34   -2.538571E-36   -8.578863E-39   -1.457098E-41
        -4.045399E-45
  31      0.00000        1.108016E-45   -3.032538E-41   -1.639759E-38   -4.202604E-36   -6.623772E-34   -7.086445E-32   -5.397622E-30   -2.996566E-28   -1.223236E-26
        -3.666285E-25   -8.008785E-24   -1.267614E-22   -1.444397E-21   -1.096058E-20   -5.101795E-20   -1.096084E-20   -1.444541E-21   -1.268016E-22   -8.015828E-24
        -3.673623E-25   -1.227909E-26   -3.015788E-28   -5.450947E-30   -7.188726E-32   -6.760328E-34   -4.327901E-36   -1.715765E-38   -3.312769E-41   -4.045399E-45
          0.00000    

 CONCENTRATION WILL BE SAVED ON UNIT 1030 AT END OF TIME STEP   83, STRESS PERIOD    2


  MASS BUDGET FOR ENTIRE MODEL AT END OF TIME STEP   83, STRESS PERIOD   2
  ---------------------------------------------------------------------------------------------------

     CUMULATIVE MASS      M       RATES FOR THIS TIME STEP      M/T          PACKAGE NAME    
     ------------------                 ------------------------                     ----------------

           IN:                                      IN:
           ---                                      ---
     STORAGE-AQUEOUS =  7436667447.2555       STORAGE-AQUEOUS =      597425.3701     MST                              
                 WEL =  7884000000.0000                   WEL =           0.0000     SSM_WEL-1                        
                 CHD =           0.0000                   CHD =           0.0000     SSM_CHD-1                        

            TOTAL IN = 15320667447.2555              TOTAL IN =      597425.3701

          OUT:                                     OUT:
          ----                                     ----
     STORAGE-AQUEOUS =  7888717996.9283       STORAGE-AQUEOUS =           5.7624     MST                              
                 WEL =  7431949450.3273                   WEL =      597419.6077     SSM_WEL-1                        
                 CHD =       7.5562E-18                   CHD =           0.0000     SSM_CHD-1                        

           TOTAL OUT = 15320667447.2556             TOTAL OUT =      597425.3701

            IN - OUT =      -1.5259E-04              IN - OUT =      -1.6438E-07

 PERCENT DISCREPANCY =          -0.00     PERCENT DISCREPANCY =          -0.00




         TIME SUMMARY AT END OF TIME STEP   83 IN STRESS PERIOD    2
                    SECONDS     MINUTES      HOURS       DAYS        YEARS
                    -----------------------------------------------------------
   TIME STEP LENGTH 2.16991E+06  36165.      602.75      25.115     6.87602E-02
 STRESS PERIOD TIME 1.80102E+08 3.00171E+06  50028.      2084.5      5.7071    
         TOTAL TIME 2.58942E+08 4.31571E+06  71928.      2997.0      8.2054    


end timestep


start timestep kper="2" kstp="84" mode="normal"

 UBDSV1 SAVING  STORAGE-AQUEOUS ON UNIT   1029 AT TIME STEP     84, STRESS PERIOD      2
 UBDSV1 SAVING     FLOW-JA-FACE ON UNIT   1029 AT TIME STEP     84, STRESS PERIOD      2
 UBDSV06 SAVING  SOURCE-SINK MIX IN MODEL GWT_P06-MF6      PACKAGE GWT_P06-MF6     CONNECTED TO MODEL GWT_P06-MF6      PACKAGE SSM              ON UNIT   1029 AT TIME STEP     84, STRESS PERIOD      2
1
  CONCENTRATION IN LAYER   1 AT END OF TIME STEP  84 IN STRESS PERIOD    2
  ---------------------------------------------------------------------------

                1               2               3               4               5               6               7               8               9              10
               11              12              13              14              15              16              17              18              19              20
               21              22              23              24              25              26              27              28              29              30
               31
 ................................................................................................................................................................................................................................................................................................................................................................................................................................................................................................................
   1      0.00000       -7.518351E-45   -3.635610E-41   -1.835943E-38   -4.580594E-36   -7.103090E-34   -7.508928E-32   -5.664131E-30   -3.118629E-28   -1.264036E-26
        -3.765819E-25   -8.185749E-24   -1.290325E-22   -1.463968E-21   -1.104886E-20   -5.106052E-20   -1.104863E-20   -1.463848E-21   -1.290006E-22   -8.180246E-24
        -3.759945E-25   -1.260156E-26   -3.102048E-28   -5.616465E-30   -7.414513E-32   -6.973381E-34   -4.458528E-36   -1.760218E-38   -3.350693E-41   -2.173381E-45
          0.00000    
   2    -7.518351E-45   -1.619486E-41   -9.200414E-39   -2.687212E-36   -4.853887E-34   -5.946796E-32   -5.195361E-30   -3.327017E-28   -1.583346E-26   -5.622201E-25
        -1.483950E-23   -2.883373E-22   -4.062733E-21   -3.987171E-20   -2.284372E-19   -6.596986E-19   -2.284314E-19   -3.986856E-20   -4.061834E-21   -2.881617E-22
        -1.481810E-23   -5.606103E-25   -1.575517E-26   -3.301259E-28   -5.136297E-30   -5.851003E-32   -4.744040E-34   -2.599540E-36   -8.727586E-39   -1.449425E-41
        -2.062693E-45
   3    -3.635610E-41   -9.200414E-39   -2.139890E-36   -3.786186E-34   -4.908210E-32   -4.694265E-30   -3.354493E-28   -1.807282E-26   -7.368069E-25   -2.267166E-23
        -5.201640E-22   -8.595663E-21   -9.139002E-20   -3.173222E-19    6.579074E-18    7.154625E-17    6.579198E-18   -3.172519E-19   -9.136844E-20   -8.590816E-21
        -5.194741E-22   -2.261165E-23   -7.334503E-25   -1.794550E-26   -3.320460E-28   -4.628550E-30   -4.815253E-32   -3.689002E-34   -2.063521E-36   -8.719550E-39
        -3.340657E-41
   4    -1.835943E-38   -2.687212E-36   -3.786186E-34   -4.540172E-32   -4.366404E-30   -3.288244E-28   -1.921665E-26   -8.673337E-25   -3.003305E-23   -7.834902E-22
        -1.443060E-20   -1.343277E-19    1.900213E-18    1.024220E-16    1.853673E-15    1.309792E-14    1.853676E-15    1.024232E-16    1.900612E-18   -1.342208E-19
        -1.441213E-20   -7.815860E-22   -2.990873E-23   -8.618494E-25   -1.904496E-26   -3.248744E-28   -4.297845E-30   -4.448145E-32   -3.687273E-34   -2.596514E-36
        -1.756337E-38
   5    -4.580594E-36   -4.853887E-34   -4.908210E-32   -4.366404E-30   -3.250000E-28   -1.963029E-26   -9.442852E-25   -3.562129E-23   -1.024378E-21   -2.016479E-20
        -1.034216E-19    1.172295E-17    5.970009E-16    1.601459E-14    2.430670E-13    1.589777E-12    2.430670E-13    1.601461E-14    5.970068E-16    1.172460E-17
        -1.030383E-19   -2.011570E-20   -1.020551E-21   -3.542277E-23   -9.369812E-25   -1.943086E-26   -3.208117E-28   -4.296470E-30   -4.811723E-32   -4.738062E-34
        -4.449953E-36
   6    -7.103090E-34   -5.946796E-32   -4.694265E-30   -3.288244E-28   -1.963029E-26   -9.691777E-25   -3.859563E-23   -1.191485E-21   -2.439372E-20    4.304022E-20
         3.463392E-17    2.049358E-15    7.449630E-14    1.762900E-12    2.482375E-11    1.537829E-10    2.482375E-11    1.762901E-12    7.449639E-14    2.049376E-15
         3.463905E-17    4.399450E-20   -2.430056E-20   -1.185689E-21   -3.834344E-23   -9.610326E-25   -1.942620E-26   -3.247019E-28   -4.624502E-30   -5.843556E-32
        -6.961330E-34
   7    -7.508928E-32   -5.195361E-30   -3.354493E-28   -1.921665E-26   -9.442852E-25   -3.859563E-23   -1.250947E-21   -2.650137E-20    2.372154E-19    6.698378E-17
         4.689021E-15    2.170636E-13    7.021169E-12    1.529885E-10    2.020469E-09    1.184904E-08    2.020469E-09    1.529885E-10    7.021169E-12    2.170638E-13
         4.689065E-15    6.699516E-17    2.388728E-19   -2.637181E-20   -1.244175E-21   -3.833644E-23   -9.366055E-25   -1.903263E-26   -3.317413E-28   -5.130079E-30
        -7.403202E-32
   8    -5.664131E-30   -3.327017E-28   -1.807282E-26   -8.673337E-25   -3.562129E-23   -1.191485E-21   -2.650137E-20    3.287421E-19    9.184876E-17    7.561287E-15
         4.275115E-13    1.756859E-11    5.165464E-10    1.036325E-08    1.275241E-07    7.023128E-07    1.275241E-07    1.036325E-08    5.165464E-10    1.756859E-11
         4.275117E-13    7.561369E-15    9.186601E-17    3.307791E-19   -2.636746E-20   -1.185331E-21   -3.540582E-23   -8.612712E-25   -1.792989E-26   -3.297711E-28
        -5.609244E-30
   9    -3.118629E-28   -1.583346E-26   -7.368069E-25   -3.003305E-23   -1.024378E-21   -2.439372E-20    2.372154E-19    9.184876E-17    8.840893E-15    5.940302E-13
         2.968295E-11    1.094406E-09    2.901107E-08    5.281505E-07    5.967831E-06    3.048440E-05    5.967831E-06    5.281505E-07    2.901107E-08    1.094406E-09
         2.968295E-11    5.940304E-13    8.840999E-15    9.186670E-17    2.389975E-19   -2.429093E-20   -1.020068E-21   -2.989066E-23   -7.329080E-25   -1.574142E-26
        -3.098927E-28
  10    -1.264036E-26   -5.622201E-25   -2.267166E-23   -7.834902E-22   -2.016479E-20    4.304022E-20    6.698378E-17    7.561287E-15    5.940302E-13    3.521044E-11
         1.565818E-09    5.116105E-08    1.196295E-06    1.927013E-05    1.954674E-04    9.097589E-04    1.954674E-04    1.927013E-05    1.196295E-06    5.116105E-08
         1.565818E-09    3.521044E-11    5.940304E-13    7.561375E-15    6.699653E-17    4.413922E-20   -2.010717E-20   -7.812217E-22   -2.259930E-23   -5.602590E-25
        -1.259266E-26
  11    -3.765819E-25   -1.483950E-23   -5.201640E-22   -1.443060E-20   -1.034216E-19    3.463392E-17    4.689021E-15    4.275115E-13    2.968295E-11    1.565818E-09
         6.131810E-08    1.734220E-06    3.458374E-05    4.741685E-04    4.169416E-03    1.721824E-02    4.169416E-03    4.741685E-04    3.458374E-05    1.734220E-06
         6.131810E-08    1.565818E-09    2.968295E-11    4.275117E-13    4.689070E-15    3.464004E-17   -1.029535E-19   -1.440773E-20   -5.193010E-22   -1.481251E-23
        -3.758355E-25
  12    -8.185749E-24   -2.883373E-22   -8.595663E-21   -1.343277E-19    1.172295E-17    2.049358E-15    2.170636E-13    1.756859E-11    1.094406E-09    5.116105E-08
         1.734220E-06    4.120388E-05    6.691004E-04    7.367819E-03    5.319444E-02    0.187128        5.319444E-02    7.367819E-03    6.691004E-04    4.120388E-05
         1.734220E-06    5.116105E-08    1.094406E-09    1.756859E-11    2.170638E-13    2.049379E-15    1.172499E-17   -1.341923E-19   -8.589458E-21   -2.881109E-22
        -8.178610E-24
  13    -1.290325E-22   -4.062733E-21   -9.139002E-20    1.900213E-18    5.970009E-16    7.449630E-14    7.021169E-12    5.165464E-10    2.901107E-08    1.196295E-06
         3.458374E-05    6.691004E-04    8.391073E-03    6.852919E-02    0.375145         1.05969        0.375145        6.852919E-02    8.391073E-03    6.691004E-04
         3.458374E-05    1.196295E-06    2.901107E-08    5.165464E-10    7.021169E-12    7.449640E-14    5.970079E-16    1.900704E-18   -9.136293E-20   -4.061593E-21
        -1.289918E-22
  14    -1.463968E-21   -3.987171E-20   -3.173222E-19    1.024220E-16    1.601459E-14    1.762900E-12    1.529885E-10    1.036325E-08    5.281505E-07    1.927013E-05
         4.741685E-04    7.367819E-03    6.852919E-02    0.384838         1.44989         3.06749         1.44989        0.384838        6.852919E-02    7.367819E-03
         4.741685E-04    1.927013E-05    5.281505E-07    1.036325E-08    1.529885E-10    1.762901E-12    1.601461E-14    1.024235E-16   -3.172388E-19   -3.986794E-20
        -1.463824E-21
  15    -1.104886E-20   -2.284372E-19    6.579074E-18    1.853673E-15    2.430670E-13    2.482375E-11    2.020469E-09    1.275241E-07    5.967831E-06    1.954674E-04
         4.169416E-03    5.319444E-02    0.375145         1.44989         3.80621         5.17290         3.80621         1.44989        0.375145        5.319444E-02
         4.169416E-03    1.954674E-04    5.967831E-06    1.275241E-07    2.020469E-09    2.482375E-11    2.430670E-13    1.853676E-15    6.579214E-18   -2.284307E-19
        -1.104861E-20
  16    -5.106052E-20   -6.596986E-19    7.154625E-17    1.309792E-14    1.589777E-12    1.537829E-10    1.184904E-08    7.023128E-07    3.048440E-05    9.097589E-04
         1.721824E-02    0.187128         1.05969         3.06749         5.17290         6.67518         5.17290         3.06749         1.05969        0.187128    
         1.721824E-02    9.097589E-04    3.048440E-05    7.023128E-07    1.184904E-08    1.537829E-10    1.589777E-12    1.309792E-14    7.154625E-17   -6.596986E-19
        -5.106052E-20
  17    -1.104863E-20   -2.284314E-19    6.579198E-18    1.853676E-15    2.430670E-13    2.482375E-11    2.020469E-09    1.275241E-07    5.967831E-06    1.954674E-04
         4.169416E-03    5.319444E-02    0.375145         1.44989         3.80621         5.17290         3.80621         1.44989        0.375145        5.319444E-02
         4.169416E-03    1.954674E-04    5.967831E-06    1.275241E-07    2.020469E-09    2.482375E-11    2.430670E-13    1.853673E-15    6.579074E-18   -2.284372E-19
        -1.104886E-20
  18    -1.463848E-21   -3.986856E-20   -3.172519E-19    1.024232E-16    1.601461E-14    1.762901E-12    1.529885E-10    1.036325E-08    5.281505E-07    1.927013E-05
         4.741685E-04    7.367819E-03    6.852919E-02    0.384838         1.44989         3.06749         1.44989        0.384838        6.852919E-02    7.367819E-03
         4.741685E-04    1.927013E-05    5.281505E-07    1.036325E-08    1.529885E-10    1.762900E-12    1.601459E-14    1.024220E-16   -3.173221E-19   -3.987171E-20
        -1.463968E-21
  19    -1.290006E-22   -4.061834E-21   -9.136844E-20    1.900612E-18    5.970068E-16    7.449639E-14    7.021169E-12    5.165464E-10    2.901107E-08    1.196295E-06
         3.458374E-05    6.691004E-04    8.391073E-03    6.852919E-02    0.375145         1.05969        0.375145        6.852919E-02    8.391073E-03    6.691004E-04
         3.458374E-05    1.196295E-06    2.901107E-08    5.165464E-10    7.021169E-12    7.449630E-14    5.970009E-16    1.900213E-18   -9.139002E-20   -4.062733E-21
        -1.290325E-22
  20    -8.180246E-24   -2.881617E-22   -8.590816E-21   -1.342208E-19    1.172460E-17    2.049376E-15    2.170638E-13    1.756859E-11    1.094406E-09    5.116105E-08
         1.734220E-06    4.120388E-05    6.691004E-04    7.367819E-03    5.319444E-02    0.187128        5.319444E-02    7.367819E-03    6.691004E-04    4.120388E-05
         1.734220E-06    5.116105E-08    1.094406E-09    1.756859E-11    2.170636E-13    2.049358E-15    1.172295E-17   -1.343277E-19   -8.595663E-21   -2.883373E-22
        -8.185749E-24
  21    -3.759945E-25   -1.481810E-23   -5.194741E-22   -1.441213E-20   -1.030383E-19    3.463905E-17    4.689065E-15    4.275117E-13    2.968295E-11    1.565818E-09
         6.131810E-08    1.734220E-06    3.458374E-05    4.741685E-04    4.169416E-03    1.721824E-02    4.169416E-03    4.741685E-04    3.458374E-05    1.734220E-06
         6.131810E-08    1.565818E-09    2.968295E-11    4.275115E-13    4.689021E-15    3.463392E-17   -1.034216E-19   -1.443060E-20   -5.201640E-22   -1.483950E-23
        -3.765819E-25
  22    -1.260156E-26   -5.606103E-25   -2.261165E-23   -7.815860E-22   -2.011570E-20    4.399450E-20    6.699516E-17    7.561369E-15    5.940304E-13    3.521044E-11
         1.565818E-09    5.116105E-08    1.196295E-06    1.927013E-05    1.954674E-04    9.097589E-04    1.954674E-04    1.927013E-05    1.196295E-06    5.116105E-08
         1.565818E-09    3.521044E-11    5.940302E-13    7.561287E-15    6.698378E-17    4.304022E-20   -2.016479E-20   -7.834902E-22   -2.267166E-23   -5.622201E-25
        -1.264036E-26
  23    -3.102048E-28   -1.575517E-26   -7.334503E-25   -2.990873E-23   -1.020551E-21   -2.430056E-20    2.388728E-19    9.186601E-17    8.840999E-15    5.940304E-13
         2.968295E-11    1.094406E-09    2.901107E-08    5.281505E-07    5.967831E-06    3.048440E-05    5.967831E-06    5.281505E-07    2.901107E-08    1.094406E-09
         2.968295E-11    5.940302E-13    8.840893E-15    9.184876E-17    2.372154E-19   -2.439372E-20   -1.024378E-21   -3.003305E-23   -7.368069E-25   -1.583346E-26
        -3.118629E-28
  24    -5.616465E-30   -3.301259E-28   -1.794550E-26   -8.618494E-25   -3.542277E-23   -1.185689E-21   -2.637181E-20    3.307791E-19    9.186670E-17    7.561375E-15
         4.275117E-13    1.756859E-11    5.165464E-10    1.036325E-08    1.275241E-07    7.023128E-07    1.275241E-07    1.036325E-08    5.165464E-10    1.756859E-11
         4.275115E-13    7.561287E-15    9.184876E-17    3.287421E-19   -2.650137E-20   -1.191485E-21   -3.562129E-23   -8.673337E-25   -1.807282E-26   -3.327017E-28
        -5.664131E-30
  25    -7.414513E-32   -5.136297E-30   -3.320460E-28   -1.904496E-26   -9.369812E-25   -3.834344E-23   -1.244175E-21   -2.636746E-20    2.389975E-19    6.699653E-17
         4.689070E-15    2.170638E-13    7.021169E-12    1.529885E-10    2.020469E-09    1.184904E-08    2.020469E-09    1.529885E-10    7.021169E-12    2.170636E-13
         4.689021E-15    6.698378E-17    2.372154E-19   -2.650137E-20   -1.250947E-21   -3.859563E-23   -9.442852E-25   -1.921665E-26   -3.354493E-28   -5.195361E-30
        -7.508928E-32
  26    -6.973381E-34   -5.851003E-32   -4.628550E-30   -3.248744E-28   -1.943086E-26   -9.610326E-25   -3.833644E-23   -1.185331E-21   -2.429093E-20    4.413922E-20
         3.464004E-17    2.049379E-15    7.449640E-14    1.762901E-12    2.482375E-11    1.537829E-10    2.482375E-11    1.762900E-12    7.449630E-14    2.049358E-15
         3.463392E-17    4.304022E-20   -2.439372E-20   -1.191485E-21   -3.859563E-23   -9.691777E-25   -1.963029E-26   -3.288244E-28   -4.694265E-30   -5.946796E-32
        -7.103090E-34
  27    -4.458528E-36   -4.744040E-34   -4.815253E-32   -4.297845E-30   -3.208117E-28   -1.942620E-26   -9.366055E-25   -3.540582E-23   -1.020068E-21   -2.010717E-20
        -1.029535E-19    1.172499E-17    5.970079E-16    1.601461E-14    2.430670E-13    1.589777E-12    2.430670E-13    1.601459E-14    5.970009E-16    1.172295E-17
        -1.034216E-19   -2.016479E-20   -1.024378E-21   -3.562129E-23   -9.442852E-25   -1.963029E-26   -3.250000E-28   -4.366404E-30   -4.908210E-32   -4.853887E-34
        -4.580594E-36
  28    -1.760218E-38   -2.599540E-36   -3.689002E-34   -4.448145E-32   -4.296470E-30   -3.247019E-28   -1.903263E-26   -8.612712E-25   -2.989066E-23   -7.812217E-22
        -1.440773E-20   -1.341923E-19    1.900704E-18    1.024235E-16    1.853676E-15    1.309792E-14    1.853673E-15    1.024220E-16    1.900213E-18   -1.343277E-19
        -1.443060E-20   -7.834902E-22   -3.003305E-23   -8.673337E-25   -1.921665E-26   -3.288244E-28   -4.366404E-30   -4.540172E-32   -3.786186E-34   -2.687212E-36
        -1.835943E-38
  29    -3.350693E-41   -8.727586E-39   -2.063521E-36   -3.687273E-34   -4.811723E-32   -4.624502E-30   -3.317413E-28   -1.792989E-26   -7.329080E-25   -2.259930E-23
        -5.193010E-22   -8.589458E-21   -9.136293E-20   -3.172388E-19    6.579214E-18    7.154625E-17    6.579074E-18   -3.173221E-19   -9.139002E-20   -8.595663E-21
        -5.201640E-22   -2.267166E-23   -7.368069E-25   -1.807282E-26   -3.354493E-28   -4.694265E-30   -4.908210E-32   -3.786186E-34   -2.139890E-36   -9.200414E-39
        -3.635610E-41
  30    -2.173381E-45   -1.449425E-41   -8.719550E-39   -2.596514E-36   -4.738062E-34   -5.843556E-32   -5.130079E-30   -3.297711E-28   -1.574142E-26   -5.602590E-25
        -1.481251E-23   -2.881109E-22   -4.061593E-21   -3.986794E-20   -2.284307E-19   -6.596986E-19   -2.284372E-19   -3.987171E-20   -4.062733E-21   -2.883373E-22
        -1.483950E-23   -5.622201E-25   -1.583346E-26   -3.327017E-28   -5.195361E-30   -5.946796E-32   -4.853887E-34   -2.687212E-36   -9.200414E-39   -1.619486E-41
        -7.518350E-45
  31      0.00000       -2.062693E-45   -3.340657E-41   -1.756337E-38   -4.449953E-36   -6.961330E-34   -7.403202E-32   -5.609244E-30   -3.098927E-28   -1.259266E-26
        -3.758355E-25   -8.178610E-24   -1.289918E-22   -1.463824E-21   -1.104861E-20   -5.106052E-20   -1.104886E-20   -1.463968E-21   -1.290325E-22   -8.185749E-24
        -3.765819E-25   -1.264036E-26   -3.118629E-28   -5.664131E-30   -7.508928E-32   -7.103090E-34   -4.580594E-36   -1.835943E-38   -3.635610E-41   -7.518350E-45
          0.00000    

 CONCENTRATION WILL BE SAVED ON UNIT 1030 AT END OF TIME STEP   84, STRESS PERIOD    2


  MASS BUDGET FOR ENTIRE MODEL AT END OF TIME STEP   84, STRESS PERIOD   2
  ---------------------------------------------------------------------------------------------------

     CUMULATIVE MASS      M       RATES FOR THIS TIME STEP      M/T          PACKAGE NAME    
     ------------------                 ------------------------                     ----------------

           IN:                                      IN:
           ---                                      ---
     STORAGE-AQUEOUS =  7451152105.2626       STORAGE-AQUEOUS =      576740.7206     MST                              
                 WEL =  7884000000.0000                   WEL =           0.0000     SSM_WEL-1                        
                 CHD =           0.0000                   CHD =           0.0000     SSM_CHD-1                        

            TOTAL IN = 15335152105.2626              TOTAL IN =      576740.7206

          OUT:                                     OUT:
          ----                                     ----
     STORAGE-AQUEOUS =  7888718131.9850       STORAGE-AQUEOUS =           5.3776     MST                              
                 WEL =  7446433973.2777                   WEL =      576735.3431     SSM_WEL-1                        
                 CHD =       7.5562E-18                   CHD =           0.0000     SSM_CHD-1                        

           TOTAL OUT = 15335152105.2628             TOTAL OUT =      576740.7206

            IN - OUT =      -1.5450E-04              IN - OUT =      -1.5832E-07

 PERCENT DISCREPANCY =          -0.00     PERCENT DISCREPANCY =          -0.00




         TIME SUMMARY AT END OF TIME STEP   84 IN STRESS PERIOD    2
                    SECONDS     MINUTES      HOURS       DAYS        YEARS
                    -----------------------------------------------------------
   TIME STEP LENGTH 2.16991E+06  36165.      602.75      25.115     6.87602E-02
 STRESS PERIOD TIME 1.82272E+08 3.03787E+06  50631.      2109.6      5.7759    
         TOTAL TIME 2.61112E+08 4.35187E+06  72531.      3022.1      8.2741    


end timestep


start timestep kper="2" kstp="85" mode="normal"

 UBDSV1 SAVING  STORAGE-AQUEOUS ON UNIT   1029 AT TIME STEP     85, STRESS PERIOD      2
 UBDSV1 SAVING     FLOW-JA-FACE ON UNIT   1029 AT TIME STEP     85, STRESS PERIOD      2
 UBDSV06 SAVING  SOURCE-SINK MIX IN MODEL GWT_P06-MF6      PACKAGE GWT_P06-MF6     CONNECTED TO MODEL GWT_P06-MF6      PACKAGE SSM              ON UNIT   1029 AT TIME STEP     85, STRESS PERIOD      2
1
  CONCENTRATION IN LAYER   1 AT END OF TIME STEP  85 IN STRESS PERIOD    2
  ---------------------------------------------------------------------------

                1               2               3               4               5               6               7               8               9              10
               11              12              13              14              15              16              17              18              19              20
               21              22              23              24              25              26              27              28              29              30
               31
 ................................................................................................................................................................................................................................................................................................................................................................................................................................................................................................................
   1      0.00000       -1.133146E-44   -3.980910E-41   -1.963050E-38   -4.845899E-36   -7.460859E-34   -7.841426E-32   -5.884446E-30   -3.224432E-28   -1.301045E-26
        -3.859875E-25   -8.358334E-24   -1.312835E-22   -1.483300E-21   -1.113281E-20   -5.107208E-20   -1.113257E-20   -1.483178E-21   -1.312513E-22   -8.352755E-24
        -3.853901E-25   -1.297084E-26   -3.207440E-28   -5.835399E-30   -7.743869E-32   -7.326263E-34   -4.718686E-36   -1.883774E-38   -3.681170E-41   -5.675826E-45
          0.00000    
   2    -1.133146E-44   -1.793408E-41   -9.857856E-39   -2.843228E-36   -5.096962E-34   -6.208658E-32   -5.397142E-30   -3.440394E-28   -1.630188E-26   -5.764381E-25
        -1.515274E-23   -2.931488E-22   -4.106151E-21   -3.984966E-20   -2.225013E-19   -6.076172E-19   -2.224955E-19   -3.984649E-20   -4.105244E-21   -2.929713E-22
        -1.513105E-23   -5.748002E-25   -1.622192E-26   -3.413985E-28   -5.336350E-30   -6.109682E-32   -4.983025E-34   -2.751931E-36   -9.363370E-39   -1.614656E-41
        -5.557908E-45
   3    -3.980910E-41   -9.857856E-39   -2.264379E-36   -3.974935E-34   -5.122838E-32   -4.875544E-30   -3.468577E-28   -1.860912E-26   -7.555753E-25   -2.315117E-23
        -5.284021E-22   -8.650460E-21   -8.950428E-20   -2.427723E-19    7.758163E-18    7.920649E-17    7.758286E-18   -2.427017E-19   -8.948260E-20   -8.645577E-21
        -5.277050E-22   -2.309030E-23   -7.521584E-25   -1.847904E-26   -3.433674E-28   -4.807902E-30   -5.026807E-32   -3.874167E-34   -2.184878E-36   -9.354923E-39
        -3.670550E-41
   4    -1.963050E-38   -2.843228E-36   -3.974935E-34   -4.738051E-32   -4.534160E-30   -3.399568E-28   -1.978575E-26   -8.894452E-25   -3.066550E-23   -7.950348E-22
        -1.442946E-20   -1.243897E-19    2.330349E-18    1.129064E-16    2.001567E-15    1.399951E-14    2.001569E-15    1.129076E-16    2.330746E-18   -1.242823E-19
        -1.441087E-20   -7.931102E-22   -3.053938E-23   -8.838604E-25   -1.961027E-26   -3.359053E-28   -4.463592E-30   -4.642988E-32   -3.872368E-34   -2.748767E-36
        -1.879693E-38
   5    -4.845899E-36   -5.096962E-34   -5.122838E-32   -4.534160E-30   -3.359787E-28   -2.021016E-26   -9.683103E-25   -3.636530E-23   -1.038204E-21   -1.999452E-20
        -7.333829E-20    1.326971E-17    6.493518E-16    1.717610E-14    2.582880E-13    1.676816E-12    2.582880E-13    1.717612E-14    6.493577E-16    1.327135E-17
        -7.295422E-20   -1.994511E-20   -1.034336E-21   -3.616384E-23   -9.608709E-25   -2.000630E-26   -3.316825E-28   -4.462173E-30   -5.023150E-32   -4.976804E-34
        -4.709716E-36
   6    -7.460859E-34   -6.208658E-32   -4.875544E-30   -3.399568E-28   -2.021016E-26   -9.938072E-25   -3.939669E-23   -1.206371E-21   -2.397795E-20    1.056779E-19
         3.847029E-17    2.216459E-15    7.958979E-14    1.866420E-12    2.608106E-11    1.604645E-10    2.608106E-11    1.866421E-12    7.958988E-14    2.216477E-15
         3.847539E-17    1.066337E-19   -2.388415E-20   -1.200511E-21   -3.914073E-23   -9.855103E-25   -2.000153E-26   -3.357280E-28   -4.803727E-30   -6.101968E-32
        -7.313723E-34
   7    -7.841426E-32   -5.397142E-30   -3.468577E-28   -1.978575E-26   -9.683103E-25   -3.939669E-23   -1.266091E-21   -2.589845E-20    3.326859E-19    7.384436E-17
         5.055528E-15    2.312940E-13    7.412032E-12    1.601930E-10    2.100154E-09    1.223361E-08    2.100154E-09    1.601930E-10    7.412033E-12    2.312942E-13
         5.055572E-15    7.385564E-17    3.343453E-19   -2.576801E-20   -1.259243E-21   -3.913363E-23   -9.604878E-25   -1.959766E-26   -3.430544E-28   -5.329938E-30
        -7.732157E-32
   8    -5.884446E-30   -3.440394E-28   -1.860912E-26   -8.894452E-25   -3.636530E-23   -1.206371E-21   -2.589845E-20    4.382985E-19    1.009585E-16    8.138739E-15
         4.547503E-13    1.850591E-11    5.393204E-10    1.073342E-08    1.311228E-07    7.173472E-07    1.311228E-07    1.073342E-08    5.393204E-10    1.850591E-11
         4.547505E-13    8.138820E-15    1.009756E-16    4.403379E-19   -2.576362E-20   -1.200149E-21   -3.614663E-23   -8.832712E-25   -1.846307E-26   -3.410343E-28
        -5.827958E-30
   9    -3.224432E-28   -1.630188E-26   -7.555753E-25   -3.066550E-23   -1.038204E-21   -2.397795E-20    3.326859E-19    1.009585E-16    9.511054E-15    6.313289E-13
         3.122282E-11    1.140212E-09    2.995683E-08    5.409616E-07    6.068687E-06    3.079856E-05    6.068687E-06    5.409616E-07    2.995683E-08    1.140212E-09
         3.122282E-11    6.313292E-13    9.511158E-15    1.009763E-16    3.344700E-19   -2.387446E-20   -1.033848E-21   -3.052104E-23   -7.516061E-25   -1.620786E-26
        -3.204239E-28
  10    -1.301045E-26   -5.764381E-25   -2.315117E-23   -7.950348E-22   -1.999452E-20    1.056779E-19    7.384436E-17    8.138739E-15    6.313289E-13    3.701925E-11
         1.629473E-09    5.271999E-08    1.221485E-06    1.951509E-05    1.965524E-04    9.090940E-04    1.965524E-04    1.951509E-05    1.221485E-06    5.271999E-08
         1.629473E-09    3.701925E-11    6.313291E-13    8.138825E-15    7.385700E-17    1.067785E-19   -1.993652E-20   -7.927420E-22   -2.307778E-23   -5.744426E-25
        -1.296175E-26
  11    -3.859875E-25   -1.515274E-23   -5.284021E-22   -1.442946E-20   -7.333829E-20    3.847029E-17    5.055528E-15    4.547503E-13    3.122282E-11    1.629473E-09
         6.314011E-08    1.767554E-06    3.491496E-05    4.747568E-04    4.145994E-03    1.702165E-02    4.145994E-03    4.747568E-04    3.491496E-05    1.767554E-06
         6.314011E-08    1.629473E-09    3.122282E-11    4.547505E-13    5.055577E-15    3.847637E-17   -7.286927E-20   -1.440644E-20   -5.275301E-22   -1.512538E-23
        -3.852285E-25
  12    -8.358334E-24   -2.931488E-22   -8.650460E-21   -1.243897E-19    1.326971E-17    2.216459E-15    2.312940E-13    1.850591E-11    1.140212E-09    5.271999E-08
         1.767554E-06    4.154962E-05    6.680933E-04    7.295842E-03    5.233809E-02    0.183181        5.233809E-02    7.295842E-03    6.680933E-04    4.154962E-05
         1.767554E-06    5.271999E-08    1.140212E-09    1.850591E-11    2.312942E-13    2.216480E-15    1.327174E-17   -1.242538E-19   -8.644210E-21   -2.929200E-22
        -8.351098E-24
  13    -1.312835E-22   -4.106151E-21   -8.950428E-20    2.330349E-18    6.493518E-16    7.958979E-14    7.412032E-12    5.393204E-10    2.995683E-08    1.221485E-06
         3.491496E-05    6.680933E-04    8.294392E-03    6.719286E-02    0.365818         1.02947        0.365818        6.719286E-02    8.294392E-03    6.680933E-04
         3.491496E-05    1.221485E-06    2.995683E-08    5.393204E-10    7.412033E-12    7.958989E-14    6.493588E-16    2.330838E-18   -8.947706E-20   -4.105001E-21
        -1.312424E-22
  14    -1.483300E-21   -3.984966E-20   -2.427723E-19    1.129064E-16    1.717610E-14    1.866420E-12    1.601930E-10    1.073342E-08    5.409616E-07    1.951509E-05
         4.747568E-04    7.295842E-03    6.719286E-02    0.374562         1.40547         2.96758         1.40547        0.374562        6.719286E-02    7.295842E-03
         4.747568E-04    1.951509E-05    5.409616E-07    1.073342E-08    1.601930E-10    1.866421E-12    1.717612E-14    1.129078E-16   -2.426886E-19   -3.984586E-20
        -1.483154E-21
  15    -1.113281E-20   -2.225013E-19    7.758163E-18    2.001567E-15    2.582880E-13    2.608106E-11    2.100154E-09    1.311228E-07    6.068687E-06    1.965524E-04
         4.145994E-03    5.233809E-02    0.365818         1.40547         3.67966         4.99722         3.67966         1.40547        0.365818        5.233809E-02
         4.145994E-03    1.965524E-04    6.068687E-06    1.311228E-07    2.100154E-09    2.608106E-11    2.582880E-13    2.001569E-15    7.758302E-18   -2.224948E-19
        -1.113255E-20
  16    -5.107208E-20   -6.076172E-19    7.920649E-17    1.399951E-14    1.676816E-12    1.604645E-10    1.223361E-08    7.173472E-07    3.079856E-05    9.090940E-04
         1.702165E-02    0.183181         1.02947         2.96758         4.99722         6.44460         4.99722         2.96758         1.02947        0.183181    
         1.702165E-02    9.090940E-04    3.079856E-05    7.173472E-07    1.223361E-08    1.604645E-10    1.676816E-12    1.399951E-14    7.920649E-17   -6.076173E-19
        -5.107208E-20
  17    -1.113257E-20   -2.224955E-19    7.758286E-18    2.001569E-15    2.582880E-13    2.608106E-11    2.100154E-09    1.311228E-07    6.068687E-06    1.965524E-04
         4.145994E-03    5.233809E-02    0.365818         1.40547         3.67966         4.99722         3.67966         1.40547        0.365818        5.233809E-02
         4.145994E-03    1.965524E-04    6.068687E-06    1.311228E-07    2.100154E-09    2.608106E-11    2.582880E-13    2.001567E-15    7.758163E-18   -2.225013E-19
        -1.113281E-20
  18    -1.483178E-21   -3.984649E-20   -2.427017E-19    1.129076E-16    1.717612E-14    1.866421E-12    1.601930E-10    1.073342E-08    5.409616E-07    1.951509E-05
         4.747568E-04    7.295842E-03    6.719286E-02    0.374562         1.40547         2.96758         1.40547        0.374562        6.719286E-02    7.295842E-03
         4.747568E-04    1.951509E-05    5.409616E-07    1.073342E-08    1.601930E-10    1.866420E-12    1.717610E-14    1.129064E-16   -2.427723E-19   -3.984966E-20
        -1.483299E-21
  19    -1.312513E-22   -4.105244E-21   -8.948260E-20    2.330746E-18    6.493577E-16    7.958988E-14    7.412033E-12    5.393204E-10    2.995683E-08    1.221485E-06
         3.491496E-05    6.680933E-04    8.294392E-03    6.719286E-02    0.365818         1.02947        0.365818        6.719286E-02    8.294392E-03    6.680933E-04
         3.491496E-05    1.221485E-06    2.995683E-08    5.393204E-10    7.412032E-12    7.958979E-14    6.493518E-16    2.330349E-18   -8.950428E-20   -4.106151E-21
        -1.312835E-22
  20    -8.352755E-24   -2.929713E-22   -8.645577E-21   -1.242823E-19    1.327135E-17    2.216477E-15    2.312942E-13    1.850591E-11    1.140212E-09    5.271999E-08
         1.767554E-06    4.154962E-05    6.680933E-04    7.295842E-03    5.233809E-02    0.183181        5.233809E-02    7.295842E-03    6.680933E-04    4.154962E-05
         1.767554E-06    5.271999E-08    1.140212E-09    1.850591E-11    2.312940E-13    2.216459E-15    1.326971E-17   -1.243897E-19   -8.650460E-21   -2.931488E-22
        -8.358334E-24
  21    -3.853901E-25   -1.513105E-23   -5.277050E-22   -1.441087E-20   -7.295422E-20    3.847539E-17    5.055572E-15    4.547505E-13    3.122282E-11    1.629473E-09
         6.314011E-08    1.767554E-06    3.491496E-05    4.747568E-04    4.145994E-03    1.702165E-02    4.145994E-03    4.747568E-04    3.491496E-05    1.767554E-06
         6.314011E-08    1.629473E-09    3.122282E-11    4.547503E-13    5.055528E-15    3.847029E-17   -7.333829E-20   -1.442946E-20   -5.284021E-22   -1.515274E-23
        -3.859875E-25
  22    -1.297084E-26   -5.748002E-25   -2.309030E-23   -7.931102E-22   -1.994511E-20    1.066337E-19    7.385564E-17    8.138820E-15    6.313292E-13    3.701925E-11
         1.629473E-09    5.271999E-08    1.221485E-06    1.951509E-05    1.965524E-04    9.090940E-04    1.965524E-04    1.951509E-05    1.221485E-06    5.271999E-08
         1.629473E-09    3.701925E-11    6.313289E-13    8.138739E-15    7.384436E-17    1.056779E-19   -1.999452E-20   -7.950348E-22   -2.315117E-23   -5.764381E-25
        -1.301045E-26
  23    -3.207440E-28   -1.622192E-26   -7.521584E-25   -3.053938E-23   -1.034336E-21   -2.388415E-20    3.343453E-19    1.009756E-16    9.511158E-15    6.313291E-13
         3.122282E-11    1.140212E-09    2.995683E-08    5.409616E-07    6.068687E-06    3.079856E-05    6.068687E-06    5.409616E-07    2.995683E-08    1.140212E-09
         3.122282E-11    6.313289E-13    9.511054E-15    1.009585E-16    3.326859E-19   -2.397795E-20   -1.038204E-21   -3.066550E-23   -7.555753E-25   -1.630188E-26
        -3.224432E-28
  24    -5.835399E-30   -3.413985E-28   -1.847904E-26   -8.838604E-25   -3.616384E-23   -1.200511E-21   -2.576801E-20    4.403379E-19    1.009763E-16    8.138825E-15
         4.547505E-13    1.850591E-11    5.393204E-10    1.073342E-08    1.311228E-07    7.173472E-07    1.311228E-07    1.073342E-08    5.393204E-10    1.850591E-11
         4.547503E-13    8.138739E-15    1.009585E-16    4.382985E-19   -2.589845E-20   -1.206371E-21   -3.636530E-23   -8.894452E-25   -1.860912E-26   -3.440394E-28
        -5.884446E-30
  25    -7.743869E-32   -5.336350E-30   -3.433674E-28   -1.961027E-26   -9.608709E-25   -3.914073E-23   -1.259243E-21   -2.576362E-20    3.344700E-19    7.385700E-17
         5.055577E-15    2.312942E-13    7.412033E-12    1.601930E-10    2.100154E-09    1.223361E-08    2.100154E-09    1.601930E-10    7.412032E-12    2.312940E-13
         5.055528E-15    7.384436E-17    3.326859E-19   -2.589845E-20   -1.266091E-21   -3.939669E-23   -9.683103E-25   -1.978575E-26   -3.468577E-28   -5.397142E-30
        -7.841426E-32
  26    -7.326263E-34   -6.109682E-32   -4.807902E-30   -3.359053E-28   -2.000630E-26   -9.855103E-25   -3.913363E-23   -1.200149E-21   -2.387446E-20    1.067785E-19
         3.847637E-17    2.216480E-15    7.958989E-14    1.866421E-12    2.608106E-11    1.604645E-10    2.608106E-11    1.866420E-12    7.958979E-14    2.216459E-15
         3.847029E-17    1.056779E-19   -2.397795E-20   -1.206371E-21   -3.939669E-23   -9.938072E-25   -2.021016E-26   -3.399568E-28   -4.875544E-30   -6.208658E-32
        -7.460859E-34
  27    -4.718686E-36   -4.983025E-34   -5.026807E-32   -4.463592E-30   -3.316825E-28   -2.000153E-26   -9.604878E-25   -3.614663E-23   -1.033848E-21   -1.993652E-20
        -7.286927E-20    1.327174E-17    6.493588E-16    1.717612E-14    2.582880E-13    1.676816E-12    2.582880E-13    1.717610E-14    6.493518E-16    1.326971E-17
        -7.333829E-20   -1.999452E-20   -1.038204E-21   -3.636530E-23   -9.683103E-25   -2.021016E-26   -3.359787E-28   -4.534160E-30   -5.122838E-32   -5.096962E-34
        -4.845899E-36
  28    -1.883774E-38   -2.751931E-36   -3.874167E-34   -4.642988E-32   -4.462173E-30   -3.357280E-28   -1.959766E-26   -8.832712E-25   -3.052104E-23   -7.927420E-22
        -1.440644E-20   -1.242538E-19    2.330838E-18    1.129078E-16    2.001569E-15    1.399951E-14    2.001567E-15    1.129064E-16    2.330349E-18   -1.243897E-19
        -1.442946E-20   -7.950348E-22   -3.066550E-23   -8.894452E-25   -1.978575E-26   -3.399568E-28   -4.534160E-30   -4.738051E-32   -3.974935E-34   -2.843228E-36
        -1.963050E-38
  29    -3.681170E-41   -9.363370E-39   -2.184878E-36   -3.872368E-34   -5.023150E-32   -4.803727E-30   -3.430544E-28   -1.846307E-26   -7.516061E-25   -2.307778E-23
        -5.275301E-22   -8.644210E-21   -8.947706E-20   -2.426886E-19    7.758302E-18    7.920649E-17    7.758163E-18   -2.427723E-19   -8.950428E-20   -8.650460E-21
        -5.284021E-22   -2.315117E-23   -7.555753E-25   -1.860912E-26   -3.468577E-28   -4.875544E-30   -5.122838E-32   -3.974935E-34   -2.264379E-36   -9.857856E-39
        -3.980910E-41
  30    -5.675826E-45   -1.614656E-41   -9.354923E-39   -2.748767E-36   -4.976804E-34   -6.101968E-32   -5.329938E-30   -3.410343E-28   -1.620786E-26   -5.744426E-25
        -1.512538E-23   -2.929200E-22   -4.105001E-21   -3.984586E-20   -2.224948E-19   -6.076173E-19   -2.225013E-19   -3.984966E-20   -4.106151E-21   -2.931488E-22
        -1.515274E-23   -5.764381E-25   -1.630188E-26   -3.440394E-28   -5.397142E-30   -6.208658E-32   -5.096962E-34   -2.843228E-36   -9.857856E-39   -1.793408E-41
        -1.133146E-44
  31      0.00000       -5.557908E-45   -3.670550E-41   -1.879693E-38   -4.709716E-36   -7.313723E-34   -7.732157E-32   -5.827958E-30   -3.204239E-28   -1.296175E-26
        -3.852285E-25   -8.351098E-24   -1.312424E-22   -1.483154E-21   -1.113255E-20   -5.107208E-20   -1.113281E-20   -1.483299E-21   -1.312835E-22   -8.358334E-24
        -3.859875E-25   -1.301045E-26   -3.224432E-28   -5.884446E-30   -7.841426E-32   -7.460859E-34   -4.845899E-36   -1.963050E-38   -3.980910E-41   -1.133146E-44
          0.00000    

 CONCENTRATION WILL BE SAVED ON UNIT 1030 AT END OF TIME STEP   85, STRESS PERIOD    2


  MASS BUDGET FOR ENTIRE MODEL AT END OF TIME STEP   85, STRESS PERIOD   2
  ---------------------------------------------------------------------------------------------------

     CUMULATIVE MASS      M       RATES FOR THIS TIME STEP      M/T          PACKAGE NAME    
     ------------------                 ------------------------                     ----------------

           IN:                                      IN:
           ---                                      ---
     STORAGE-AQUEOUS =  7465136420.9872       STORAGE-AQUEOUS =      556818.4161     MST                              
                 WEL =  7884000000.0000                   WEL =           0.0000     SSM_WEL-1                        
                 CHD =           0.0000                   CHD =           0.0000     SSM_CHD-1                        

            TOTAL IN = 15349136420.9872              TOTAL IN =      556818.4161

          OUT:                                     OUT:
          ----                                     ----
     STORAGE-AQUEOUS =  7888718257.4917       STORAGE-AQUEOUS =           4.9973     MST                              
                 WEL =  7460418163.4957                   WEL =      556813.4187     SSM_WEL-1                        
                 CHD =       7.5562E-18                   CHD =           0.0000     SSM_CHD-1                        

           TOTAL OUT = 15349136420.9873             TOTAL OUT =      556818.4161

            IN - OUT =      -1.6022E-04              IN - OUT =      -1.5262E-07

 PERCENT DISCREPANCY =          -0.00     PERCENT DISCREPANCY =          -0.00




         TIME SUMMARY AT END OF TIME STEP   85 IN STRESS PERIOD    2
                    SECONDS     MINUTES      HOURS       DAYS        YEARS
                    -----------------------------------------------------------
   TIME STEP LENGTH 2.16991E+06  36165.      602.75      25.115     6.87602E-02
 STRESS PERIOD TIME 1.84442E+08 3.07404E+06  51234.      2134.7      5.8446    
         TOTAL TIME 2.63282E+08 4.38804E+06  73134.      3047.2      8.3429    


end timestep


start timestep kper="2" kstp="86" mode="normal"

 UBDSV1 SAVING  STORAGE-AQUEOUS ON UNIT   1029 AT TIME STEP     86, STRESS PERIOD      2
 UBDSV1 SAVING     FLOW-JA-FACE ON UNIT   1029 AT TIME STEP     86, STRESS PERIOD      2
 UBDSV06 SAVING  SOURCE-SINK MIX IN MODEL GWT_P06-MF6      PACKAGE GWT_P06-MF6     CONNECTED TO MODEL GWT_P06-MF6      PACKAGE SSM              ON UNIT   1029 AT TIME STEP     86, STRESS PERIOD      2
1
  CONCENTRATION IN LAYER   1 AT END OF TIME STEP  86 IN STRESS PERIOD    2
  ---------------------------------------------------------------------------

                1               2               3               4               5               6               7               8               9              10
               11              12              13              14              15              16              17              18              19              20
               21              22              23              24              25              26              27              28              29              30
               31
 ................................................................................................................................................................................................................................................................................................................................................................................................................................................................................................................
   1      0.00000       -1.550819E-44   -4.349949E-41   -2.097425E-38   -5.124362E-36   -7.834201E-34   -8.186624E-32   -6.112093E-30   -3.333265E-28   -1.338951E-26
        -3.955815E-25   -8.533584E-24   -1.335536E-22   -1.502504E-21   -1.121224E-20   -5.105018E-20   -1.121201E-20   -1.502381E-21   -1.335211E-22   -8.527928E-24
        -3.949740E-25   -1.334908E-26   -3.315855E-28   -6.061631E-30   -8.085835E-32   -7.694559E-34   -4.991809E-36   -2.014453E-38   -4.034702E-41   -9.525942E-45
          0.00000    
   2    -1.550819E-44   -1.979520E-41   -1.055295E-38   -3.006936E-36   -5.350552E-34   -6.480489E-32   -5.605645E-30   -3.557039E-28   -1.678176E-26   -5.909398E-25
        -1.547045E-23   -2.979749E-22   -4.147998E-21   -3.977665E-20   -2.158254E-19   -5.510429E-19   -2.158196E-19   -3.977345E-20   -4.147083E-21   -2.977955E-22
        -1.544846E-23   -5.892735E-25   -1.670010E-26   -3.529966E-28   -5.543083E-30   -6.378237E-32   -5.232391E-34   -2.911880E-36   -1.003592E-38   -1.791681E-41
        -9.400375E-45
   3    -4.349949E-41   -1.055295E-38   -2.394989E-36   -4.171806E-34   -5.345594E-32   -5.062849E-30   -3.585953E-28   -1.915860E-26   -7.747162E-25   -2.363682E-23
        -5.365953E-22   -8.697617E-21   -8.731853E-20   -1.613448E-19    9.022154E-18    8.734969E-17    9.022278E-18   -1.612739E-19   -8.729673E-20   -8.692699E-21
        -5.358909E-22   -2.357510E-23   -7.712382E-25   -1.902569E-26   -3.550161E-28   -4.993231E-30   -5.246402E-32   -4.067336E-34   -2.312242E-36   -1.002704E-38
        -4.023469E-41
   4    -2.097425E-38   -3.006936E-36   -4.171806E-34   -4.943406E-32   -4.707475E-30   -3.514099E-28   -2.036882E-26   -9.119911E-25   -3.130502E-23   -8.063769E-22
        -1.440473E-20   -1.133145E-19    2.794827E-18    1.241040E-16    2.158187E-15    1.494719E-14    2.158190E-15    1.241052E-16    2.795224E-18   -1.132069E-19
        -1.438601E-20   -8.044320E-22   -3.117707E-23   -9.063045E-25   -2.018949E-26   -3.472547E-28   -4.634847E-30   -4.845219E-32   -4.065466E-34   -2.908572E-36
        -2.010161E-38
   5    -5.124362E-36   -5.350552E-34   -5.345594E-32   -4.707475E-30   -3.472734E-28   -2.080423E-26   -9.928026E-25   -3.711645E-23   -1.051585E-21   -1.977233E-20
        -4.022860E-20    1.493382E-17    7.050948E-16    1.840203E-14    2.742288E-13    1.767317E-12    2.742288E-13    1.840206E-14    7.051007E-16    1.493545E-17
        -3.984376E-20   -1.972258E-20   -1.047675E-21   -3.691203E-23   -9.852258E-25   -2.059587E-26   -3.428670E-28   -4.633383E-30   -5.242615E-32   -5.225919E-34
        -4.982429E-36
   6    -7.834201E-34   -6.480489E-32   -5.062849E-30   -3.514099E-28   -2.080423E-26   -1.018914E-24   -4.020467E-23   -1.220579E-21   -2.347637E-20    1.742266E-19
         4.258794E-17    2.393949E-15    8.495037E-14    1.974459E-12    2.738307E-11    1.673329E-10    2.738307E-11    1.974459E-12    8.495045E-14    2.393967E-15
         4.259300E-17    1.751837E-19   -2.338194E-20   -1.214655E-21   -3.994492E-23   -1.010463E-24   -2.059099E-26   -3.470726E-28   -4.988926E-30   -6.370249E-32
        -7.681511E-34
   7    -8.186624E-32   -5.605645E-30   -3.585953E-28   -2.036882E-26   -9.928026E-25   -4.020467E-23   -1.280460E-21   -2.518597E-20    4.368821E-19    8.119662E-17
         5.444112E-15    2.462352E-13    7.818687E-12    1.676243E-10    2.181686E-09    1.262405E-08    2.181686E-09    1.676243E-10    7.818688E-12    2.462353E-13
         5.444155E-15    8.120782E-17    4.385434E-19   -2.505466E-20   -1.273536E-21   -3.993770E-23   -9.848353E-25   -2.017658E-26   -3.546947E-28   -5.536473E-30
        -8.073710E-32
   8    -6.112093E-30   -3.557039E-28   -1.915860E-26   -9.119911E-25   -3.711645E-23   -1.220579E-21   -2.518597E-20    5.577701E-19    1.107136E-16    8.750279E-15
         4.833003E-13    1.947862E-11    5.627280E-10    1.111041E-08    1.347557E-07    7.323897E-07    1.347557E-07    1.111041E-08    5.627280E-10    1.947862E-11
         4.833005E-13    8.750360E-15    1.107306E-16    5.598116E-19   -2.505024E-20   -1.214289E-21   -3.689456E-23   -9.057041E-25   -1.900936E-26   -3.526227E-28
        -6.053964E-30
   9    -3.333265E-28   -1.678176E-26   -7.747162E-25   -3.130502E-23   -1.051585E-21   -2.347637E-20    4.368821E-19    1.107136E-16    1.022050E-14    6.703877E-13
         3.281812E-11    1.187162E-09    3.091596E-08    5.538176E-07    6.168769E-06    3.110572E-05    6.168769E-06    5.538176E-07    3.091596E-08    1.187162E-09
         3.281812E-11    6.703879E-13    1.022061E-14    1.107313E-16    4.386682E-19   -2.337219E-20   -1.047182E-21   -3.115846E-23   -7.706757E-25   -1.668573E-26
        -3.312571E-28
  10    -1.338951E-26   -5.909398E-25   -2.363682E-23   -8.063769E-22   -1.977233E-20    1.742266E-19    8.119662E-17    8.750279E-15    6.703877E-13    3.889206E-11
         1.694615E-09    5.429608E-08    1.246621E-06    1.975565E-05    1.975841E-04    9.082239E-04    1.975841E-04    1.975565E-05    1.246621E-06    5.429608E-08
         1.694615E-09    3.889206E-11    6.703879E-13    8.750365E-15    8.120916E-17    1.753286E-19   -1.971394E-20   -8.040599E-22   -2.356239E-23   -5.889096E-25
        -1.333980E-26
  11    -3.955815E-25   -1.547045E-23   -5.365953E-22   -1.440473E-20   -4.022860E-20    4.258794E-17    5.444112E-15    4.833003E-13    3.281812E-11    1.694615E-09
         6.498002E-08    1.800694E-06    3.523640E-05    4.752151E-04    4.121907E-03    1.682527E-02    4.121907E-03    4.752151E-04    3.523640E-05    1.800694E-06
         6.498002E-08    1.694615E-09    3.281812E-11    4.833005E-13    5.444160E-15    4.259397E-17   -3.975872E-20   -1.438155E-20   -5.357142E-22   -1.544271E-23
        -3.948097E-25
  12    -8.533584E-24   -2.979749E-22   -8.697617E-21   -1.133145E-19    1.493382E-17    2.393949E-15    2.462352E-13    1.947862E-11    1.187162E-09    5.429608E-08
         1.800694E-06    4.188302E-05    6.669128E-04    7.223374E-03    5.149122E-02    0.179313        5.149122E-02    7.223374E-03    6.669128E-04    4.188302E-05
         1.800694E-06    5.429608E-08    1.187162E-09    1.947862E-11    2.462353E-13    2.393970E-15    1.493583E-17   -1.131783E-19   -8.691323E-21   -2.977437E-22
        -8.526249E-24
  13    -1.335536E-22   -4.147998E-21   -8.731853E-20    2.794827E-18    7.050948E-16    8.495037E-14    7.818687E-12    5.627280E-10    3.091596E-08    1.246621E-06
         3.523640E-05    6.669128E-04    8.197551E-03    6.587886E-02    0.356729         1.00018        0.356729        6.587886E-02    8.197551E-03    6.669128E-04
         3.523640E-05    1.246621E-06    3.091596E-08    5.627280E-10    7.818688E-12    8.495046E-14    7.051018E-16    2.795316E-18   -8.729117E-20   -4.146839E-21
        -1.335121E-22
  14    -1.502504E-21   -3.977665E-20   -1.613448E-19    1.241040E-16    1.840203E-14    1.974459E-12    1.676243E-10    1.111041E-08    5.538176E-07    1.975565E-05
         4.752151E-04    7.223374E-03    6.587886E-02    0.364572         1.36251         2.87119         1.36251        0.364572        6.587886E-02    7.223374E-03
         4.752151E-04    1.975565E-05    5.538176E-07    1.111041E-08    1.676243E-10    1.974459E-12    1.840206E-14    1.241054E-16   -1.612607E-19   -3.977282E-20
        -1.502356E-21
  15    -1.121224E-20   -2.158254E-19    9.022154E-18    2.158187E-15    2.742288E-13    2.738307E-11    2.181686E-09    1.347557E-07    6.168769E-06    1.975841E-04
         4.121907E-03    5.149122E-02    0.356729         1.36251         3.55759         4.82791         3.55759         1.36251        0.356729        5.149122E-02
         4.121907E-03    1.975841E-04    6.168769E-06    1.347557E-07    2.181686E-09    2.738307E-11    2.742288E-13    2.158190E-15    9.022294E-18   -2.158189E-19
        -1.121198E-20
  16    -5.105018E-20   -5.510429E-19    8.734969E-17    1.494719E-14    1.767317E-12    1.673329E-10    1.262405E-08    7.323897E-07    3.110572E-05    9.082239E-04
         1.682527E-02    0.179313         1.00018         2.87119         4.82791         6.22250         4.82791         2.87119         1.00018        0.179313    
         1.682527E-02    9.082239E-04    3.110572E-05    7.323897E-07    1.262405E-08    1.673329E-10    1.767317E-12    1.494719E-14    8.734969E-17   -5.510429E-19
        -5.105018E-20
  17    -1.121201E-20   -2.158196E-19    9.022278E-18    2.158190E-15    2.742288E-13    2.738307E-11    2.181686E-09    1.347557E-07    6.168769E-06    1.975841E-04
         4.121907E-03    5.149122E-02    0.356729         1.36251         3.55759         4.82791         3.55759         1.36251        0.356729        5.149122E-02
         4.121907E-03    1.975841E-04    6.168769E-06    1.347557E-07    2.181686E-09    2.738307E-11    2.742288E-13    2.158187E-15    9.022155E-18   -2.158254E-19
        -1.121224E-20
  18    -1.502381E-21   -3.977345E-20   -1.612739E-19    1.241052E-16    1.840206E-14    1.974459E-12    1.676243E-10    1.111041E-08    5.538176E-07    1.975565E-05
         4.752151E-04    7.223374E-03    6.587886E-02    0.364572         1.36251         2.87119         1.36251        0.364572        6.587886E-02    7.223374E-03
         4.752151E-04    1.975565E-05    5.538176E-07    1.111041E-08    1.676243E-10    1.974459E-12    1.840203E-14    1.241040E-16   -1.613447E-19   -3.977665E-20
        -1.502504E-21
  19    -1.335211E-22   -4.147083E-21   -8.729673E-20    2.795224E-18    7.051007E-16    8.495045E-14    7.818688E-12    5.627280E-10    3.091596E-08    1.246621E-06
         3.523640E-05    6.669128E-04    8.197551E-03    6.587886E-02    0.356729         1.00018        0.356729        6.587886E-02    8.197551E-03    6.669128E-04
         3.523640E-05    1.246621E-06    3.091596E-08    5.627280E-10    7.818687E-12    8.495037E-14    7.050948E-16    2.794827E-18   -8.731853E-20   -4.147998E-21
        -1.335536E-22
  20    -8.527928E-24   -2.977955E-22   -8.692699E-21   -1.132069E-19    1.493545E-17    2.393967E-15    2.462353E-13    1.947862E-11    1.187162E-09    5.429608E-08
         1.800694E-06    4.188302E-05    6.669128E-04    7.223374E-03    5.149122E-02    0.179313        5.149122E-02    7.223374E-03    6.669128E-04    4.188302E-05
         1.800694E-06    5.429608E-08    1.187162E-09    1.947862E-11    2.462352E-13    2.393949E-15    1.493382E-17   -1.133145E-19   -8.697617E-21   -2.979749E-22
        -8.533584E-24
  21    -3.949740E-25   -1.544846E-23   -5.358909E-22   -1.438601E-20   -3.984376E-20    4.259300E-17    5.444155E-15    4.833005E-13    3.281812E-11    1.694615E-09
         6.498002E-08    1.800694E-06    3.523640E-05    4.752151E-04    4.121907E-03    1.682527E-02    4.121907E-03    4.752151E-04    3.523640E-05    1.800694E-06
         6.498002E-08    1.694615E-09    3.281812E-11    4.833003E-13    5.444112E-15    4.258794E-17   -4.022860E-20   -1.440473E-20   -5.365953E-22   -1.547045E-23
        -3.955815E-25
  22    -1.334908E-26   -5.892735E-25   -2.357510E-23   -8.044320E-22   -1.972258E-20    1.751837E-19    8.120782E-17    8.750360E-15    6.703879E-13    3.889206E-11
         1.694615E-09    5.429608E-08    1.246621E-06    1.975565E-05    1.975841E-04    9.082239E-04    1.975841E-04    1.975565E-05    1.246621E-06    5.429608E-08
         1.694615E-09    3.889206E-11    6.703877E-13    8.750279E-15    8.119662E-17    1.742266E-19   -1.977233E-20   -8.063769E-22   -2.363682E-23   -5.909398E-25
        -1.338951E-26
  23    -3.315855E-28   -1.670010E-26   -7.712382E-25   -3.117707E-23   -1.047675E-21   -2.338194E-20    4.385434E-19    1.107306E-16    1.022061E-14    6.703879E-13
         3.281812E-11    1.187162E-09    3.091596E-08    5.538176E-07    6.168769E-06    3.110572E-05    6.168769E-06    5.538176E-07    3.091596E-08    1.187162E-09
         3.281812E-11    6.703877E-13    1.022050E-14    1.107136E-16    4.368821E-19   -2.347637E-20   -1.051585E-21   -3.130502E-23   -7.747162E-25   -1.678176E-26
        -3.333265E-28
  24    -6.061631E-30   -3.529966E-28   -1.902569E-26   -9.063045E-25   -3.691203E-23   -1.214655E-21   -2.505466E-20    5.598116E-19    1.107313E-16    8.750365E-15
         4.833005E-13    1.947862E-11    5.627280E-10    1.111041E-08    1.347557E-07    7.323897E-07    1.347557E-07    1.111041E-08    5.627280E-10    1.947862E-11
         4.833003E-13    8.750279E-15    1.107136E-16    5.577701E-19   -2.518597E-20   -1.220579E-21   -3.711645E-23   -9.119911E-25   -1.915860E-26   -3.557039E-28
        -6.112093E-30
  25    -8.085835E-32   -5.543083E-30   -3.550161E-28   -2.018949E-26   -9.852258E-25   -3.994492E-23   -1.273536E-21   -2.505024E-20    4.386682E-19    8.120916E-17
         5.444160E-15    2.462353E-13    7.818688E-12    1.676243E-10    2.181686E-09    1.262405E-08    2.181686E-09    1.676243E-10    7.818687E-12    2.462352E-13
         5.444112E-15    8.119662E-17    4.368821E-19   -2.518597E-20   -1.280460E-21   -4.020467E-23   -9.928026E-25   -2.036882E-26   -3.585953E-28   -5.605645E-30
        -8.186624E-32
  26    -7.694559E-34   -6.378237E-32   -4.993231E-30   -3.472547E-28   -2.059587E-26   -1.010463E-24   -3.993770E-23   -1.214289E-21   -2.337219E-20    1.753286E-19
         4.259397E-17    2.393970E-15    8.495046E-14    1.974459E-12    2.738307E-11    1.673329E-10    2.738307E-11    1.974459E-12    8.495037E-14    2.393949E-15
         4.258794E-17    1.742266E-19   -2.347637E-20   -1.220579E-21   -4.020467E-23   -1.018914E-24   -2.080423E-26   -3.514099E-28   -5.062849E-30   -6.480489E-32
        -7.834201E-34
  27    -4.991809E-36   -5.232391E-34   -5.246402E-32   -4.634847E-30   -3.428670E-28   -2.059099E-26   -9.848353E-25   -3.689456E-23   -1.047182E-21   -1.971394E-20
        -3.975872E-20    1.493583E-17    7.051018E-16    1.840206E-14    2.742288E-13    1.767317E-12    2.742288E-13    1.840203E-14    7.050948E-16    1.493382E-17
        -4.022860E-20   -1.977233E-20   -1.051585E-21   -3.711645E-23   -9.928026E-25   -2.080423E-26   -3.472734E-28   -4.707475E-30   -5.345594E-32   -5.350552E-34
        -5.124362E-36
  28    -2.014453E-38   -2.911880E-36   -4.067336E-34   -4.845219E-32   -4.633383E-30   -3.470726E-28   -2.017658E-26   -9.057041E-25   -3.115846E-23   -8.040599E-22
        -1.438155E-20   -1.131783E-19    2.795316E-18    1.241054E-16    2.158190E-15    1.494719E-14    2.158187E-15    1.241040E-16    2.794827E-18   -1.133145E-19
        -1.440473E-20   -8.063769E-22   -3.130502E-23   -9.119911E-25   -2.036882E-26   -3.514099E-28   -4.707475E-30   -4.943406E-32   -4.171806E-34   -3.006936E-36
        -2.097425E-38
  29    -4.034702E-41   -1.003592E-38   -2.312242E-36   -4.065466E-34   -5.242615E-32   -4.988926E-30   -3.546947E-28   -1.900936E-26   -7.706757E-25   -2.356239E-23
        -5.357142E-22   -8.691323E-21   -8.729117E-20   -1.612607E-19    9.022294E-18    8.734969E-17    9.022155E-18   -1.613447E-19   -8.731853E-20   -8.697617E-21
        -5.365953E-22   -2.363682E-23   -7.747162E-25   -1.915860E-26   -3.585953E-28   -5.062849E-30   -5.345594E-32   -4.171806E-34   -2.394989E-36   -1.055295E-38
        -4.349949E-41
  30    -9.525942E-45   -1.791681E-41   -1.002704E-38   -2.908572E-36   -5.225919E-34   -6.370249E-32   -5.536473E-30   -3.526227E-28   -1.668573E-26   -5.889096E-25
        -1.544271E-23   -2.977437E-22   -4.146839E-21   -3.977282E-20   -2.158189E-19   -5.510429E-19   -2.158254E-19   -3.977665E-20   -4.147998E-21   -2.979749E-22
        -1.547045E-23   -5.909398E-25   -1.678176E-26   -3.557039E-28   -5.605645E-30   -6.480489E-32   -5.350552E-34   -3.006936E-36   -1.055295E-38   -1.979520E-41
        -1.550819E-44
  31      0.00000       -9.400375E-45   -4.023469E-41   -2.010161E-38   -4.982429E-36   -7.681511E-34   -8.073710E-32   -6.053964E-30   -3.312571E-28   -1.333980E-26
        -3.948097E-25   -8.526249E-24   -1.335121E-22   -1.502356E-21   -1.121198E-20   -5.105018E-20   -1.121224E-20   -1.502504E-21   -1.335536E-22   -8.533584E-24
        -3.955815E-25   -1.338951E-26   -3.333265E-28   -6.112093E-30   -8.186624E-32   -7.834201E-34   -5.124362E-36   -2.097425E-38   -4.349949E-41   -1.550819E-44
          0.00000    

 CONCENTRATION WILL BE SAVED ON UNIT 1030 AT END OF TIME STEP   86, STRESS PERIOD    2


  MASS BUDGET FOR ENTIRE MODEL AT END OF TIME STEP   86, STRESS PERIOD   2
  ---------------------------------------------------------------------------------------------------

     CUMULATIVE MASS      M       RATES FOR THIS TIME STEP      M/T          PACKAGE NAME    
     ------------------                 ------------------------                     ----------------

           IN:                                      IN:
           ---                                      ---
     STORAGE-AQUEOUS =  7478638800.8811       STORAGE-AQUEOUS =      537629.0076     MST                              
                 WEL =  7884000000.0000                   WEL =           0.0000     SSM_WEL-1                        
                 CHD =           0.0000                   CHD =           0.0000     SSM_CHD-1                        

            TOTAL IN = 15362638800.8811              TOTAL IN =      537629.0076

          OUT:                                     OUT:
          ----                                     ----
     STORAGE-AQUEOUS =  7888718373.5675       STORAGE-AQUEOUS =           4.6218     MST                              
                 WEL =  7473920427.3138                   WEL =      537624.3858     SSM_WEL-1                        
                 CHD =       7.5562E-18                   CHD =           0.0000     SSM_CHD-1                        

           TOTAL OUT = 15362638800.8813             TOTAL OUT =      537629.0076

            IN - OUT =      -1.6212E-04              IN - OUT =      -1.4761E-07

 PERCENT DISCREPANCY =          -0.00     PERCENT DISCREPANCY =          -0.00




         TIME SUMMARY AT END OF TIME STEP   86 IN STRESS PERIOD    2
                    SECONDS     MINUTES      HOURS       DAYS        YEARS
                    -----------------------------------------------------------
   TIME STEP LENGTH 2.16991E+06  36165.      602.75      25.115     6.87602E-02
 STRESS PERIOD TIME 1.86612E+08 3.11020E+06  51837.      2159.9      5.9134    
         TOTAL TIME 2.65452E+08 4.42420E+06  73737.      3072.4      8.4117    


end timestep


start timestep kper="2" kstp="87" mode="normal"

 UBDSV1 SAVING  STORAGE-AQUEOUS ON UNIT   1029 AT TIME STEP     87, STRESS PERIOD      2
 UBDSV1 SAVING     FLOW-JA-FACE ON UNIT   1029 AT TIME STEP     87, STRESS PERIOD      2
 UBDSV06 SAVING  SOURCE-SINK MIX IN MODEL GWT_P06-MF6      PACKAGE GWT_P06-MF6     CONNECTED TO MODEL GWT_P06-MF6      PACKAGE SSM              ON UNIT   1029 AT TIME STEP     87, STRESS PERIOD      2
1
  CONCENTRATION IN LAYER   1 AT END OF TIME STEP  87 IN STRESS PERIOD    2
  ---------------------------------------------------------------------------

                1               2               3               4               5               6               7               8               9              10
               11              12              13              14              15              16              17              18              19              20
               21              22              23              24              25              26              27              28              29              30
               31
 ................................................................................................................................................................................................................................................................................................................................................................................................................................................................................................................
   1      0.00000       -2.007334E-44   -4.744069E-41   -2.239426E-38   -5.416544E-36   -8.223701E-34   -8.544937E-32   -6.347275E-30   -3.445200E-28   -1.377772E-26
        -4.053664E-25   -8.711496E-24   -1.358417E-22   -1.521547E-21   -1.128671E-20   -5.099224E-20   -1.128647E-20   -1.521423E-21   -1.358088E-22   -8.705763E-24
        -4.047486E-25   -1.373646E-26   -3.427362E-28   -6.295364E-30   -8.440824E-32   -8.078847E-34   -5.278457E-36   -2.152604E-38   -4.412604E-41   -1.374779E-44
          0.00000    
   2    -2.007334E-44   -2.178512E-41   -1.128752E-38   -3.178663E-36   -5.615048E-34   -6.762613E-32   -5.821061E-30   -3.677029E-28   -1.727331E-26   -6.057284E-25
        -1.579257E-23   -3.028100E-22   -4.188074E-21   -3.964834E-20   -2.083589E-19   -4.897055E-19   -2.083531E-19   -3.964511E-20   -4.187152E-21   -3.026288E-22
        -1.577028E-23   -6.040332E-25   -1.718992E-26   -3.649277E-28   -5.756685E-30   -6.656993E-32   -5.492525E-34   -3.079711E-36   -1.074704E-38   -1.981175E-41
        -1.361414E-44
   3    -4.744069E-41   -1.128752E-38   -2.531980E-36   -4.377100E-34   -5.576745E-32   -5.256347E-30   -3.706699E-28   -1.972148E-26   -7.942328E-25   -2.412844E-23
        -5.447264E-22   -8.736347E-21   -8.480980E-20   -7.259003E-20    1.037580E-17    9.599895E-17    1.037592E-17   -7.251889E-20   -8.478789E-20   -8.731393E-21
        -5.440146E-22   -2.406585E-23   -7.906930E-25   -1.958571E-26   -3.670000E-28   -5.184705E-30   -5.474300E-32   -4.268810E-34   -2.445868E-36   -1.073771E-38
        -4.400725E-41
   4    -2.239426E-38   -3.178663E-36   -4.377100E-34   -5.156481E-32   -4.886505E-30   -3.631912E-28   -2.096610E-26   -9.349741E-25   -3.195121E-23   -8.174775E-22
        -1.435419E-20   -1.010195E-19    3.295774E-18    1.360522E-16    2.323920E-15    1.594262E-14    2.323922E-15    1.360534E-16    3.296170E-18   -1.009115E-19
        -1.433535E-20   -8.155120E-22   -3.182142E-23   -9.291844E-25   -2.078285E-26   -3.589301E-28   -4.811764E-30   -5.055080E-32   -4.266864E-34   -3.076254E-36
        -2.148092E-38
   5    -5.416544E-36   -5.615048E-34   -5.576745E-32   -4.886505E-30   -3.588914E-28   -2.141277E-26   -1.017764E-24   -3.787414E-23   -1.064452E-21   -1.949359E-20
        -3.878583E-21    1.672222E-17    7.643973E-16    1.969499E-14    2.909120E-13    1.861357E-12    2.909121E-13    1.969501E-14    7.644032E-16    1.672384E-17
        -3.492997E-21   -1.944351E-20   -1.060501E-21   -3.766674E-23   -1.010048E-24   -2.119983E-26   -3.543725E-28   -4.810255E-30   -5.470379E-32   -5.485794E-34
        -5.268649E-36
   6    -8.223701E-34   -6.762613E-32   -5.256347E-30   -3.631912E-28   -2.141277E-26   -1.044499E-24   -4.101883E-23   -1.234013E-21   -2.288158E-20    2.490947E-19
         4.700293E-17    2.582313E-15    9.058783E-14    2.087139E-12    2.873057E-11    1.743895E-10    2.873057E-11    2.087139E-12    9.058792E-14    2.582331E-15
         4.700796E-17    2.500531E-19   -2.278653E-20   -1.228025E-21   -4.075524E-23   -1.035892E-24   -2.119483E-26   -3.587431E-28   -5.180266E-30   -6.648722E-32
        -8.065276E-34
   7    -8.544937E-32   -5.821061E-30   -3.706699E-28   -2.096610E-26   -1.017764E-24   -4.101883E-23   -1.293948E-21   -2.435464E-20    5.503987E-19    8.906797E-17
         5.855756E-15    2.619110E-13    8.241493E-12    1.752851E-10    2.265065E-09    1.302026E-08    2.265065E-09    1.752851E-10    8.241493E-12    2.619111E-13
         5.855799E-15    8.907907E-17    5.520617E-19   -2.422246E-20   -1.286949E-21   -4.074791E-23   -1.009650E-24   -2.076965E-26   -3.666700E-28   -5.749871E-30
        -8.428273E-32
   8    -6.347275E-30   -3.677029E-28   -1.972148E-26   -9.349741E-25   -3.787414E-23   -1.234013E-21   -2.435464E-20    6.878292E-19    1.211497E-16    9.397382E-15
         5.132027E-13    2.048740E-11    5.867730E-10    1.149416E-08    1.384215E-07    7.474342E-07    1.384215E-07    1.149415E-08    5.867730E-10    2.048740E-11
         5.132029E-13    9.397462E-15    1.211665E-16    6.898726E-19   -2.421801E-20   -1.227655E-21   -3.764900E-23   -9.285726E-25   -1.956901E-26   -3.645441E-28
        -6.287467E-30
   9    -3.445200E-28   -1.727331E-26   -7.942328E-25   -3.195121E-23   -1.064452E-21   -2.288158E-20    5.503987E-19    1.211497E-16    1.097092E-14    7.112594E-13
         3.446977E-11    1.235255E-09    3.188817E-08    5.667124E-07    6.268035E-06    3.140582E-05    6.268035E-06    5.667124E-07    3.188817E-08    1.235255E-09
         3.446977E-11    7.112596E-13    1.097103E-14    1.211672E-16    5.521866E-19   -2.277671E-20   -1.060001E-21   -3.180254E-23   -7.901201E-25   -1.717524E-26
        -3.423995E-28
  10    -1.377772E-26   -6.057284E-25   -2.412844E-23   -8.174775E-22   -1.949359E-20    2.490947E-19    8.906797E-17    9.397382E-15    7.112594E-13    4.082987E-11
         1.761240E-09    5.588865E-08    1.271691E-06    1.999174E-05    1.985631E-04    9.071538E-04    1.985631E-04    1.999174E-05    1.271691E-06    5.588865E-08
         1.761240E-09    4.082987E-11    7.112596E-13    9.397467E-15    8.908040E-17    2.501981E-19   -1.943482E-20   -8.151360E-22   -2.405296E-23   -6.036629E-25
        -1.372699E-26
  11    -4.053664E-25   -1.579257E-23   -5.447264E-22   -1.435419E-20   -3.878583E-21    4.700293E-17    5.855756E-15    5.132027E-13    3.446977E-11    1.761240E-09
         6.683701E-08    1.833623E-06    3.554800E-05    4.755460E-04    4.097189E-03    1.662920E-02    4.097189E-03    4.755460E-04    3.554800E-05    1.833623E-06
         6.683701E-08    1.761240E-09    3.446977E-11    5.132029E-13    5.855804E-15    4.700892E-17   -3.407863E-21   -1.433086E-20   -5.438361E-22   -1.576445E-23
        -4.045816E-25
  12    -8.711496E-24   -3.028100E-22   -8.736347E-21   -1.010195E-19    1.672222E-17    2.582313E-15    2.619110E-13    2.048740E-11    1.235255E-09    5.588865E-08
         1.833623E-06    4.220406E-05    6.655637E-04    7.150475E-03    5.065395E-02    0.175525        5.065395E-02    7.150475E-03    6.655637E-04    4.220406E-05
         1.833623E-06    5.588865E-08    1.235255E-09    2.048740E-11    2.619111E-13    2.582334E-15    1.672422E-17   -1.008828E-19   -8.730008E-21   -3.025764E-22
        -8.704062E-24
  13    -1.358417E-22   -4.188074E-21   -8.480980E-20    3.295774E-18    7.643973E-16    9.058783E-14    8.241493E-12    5.867730E-10    3.188817E-08    1.271691E-06
         3.554800E-05    6.655637E-04    8.100615E-03    6.458702E-02    0.347872        0.971789        0.347872        6.458702E-02    8.100615E-03    6.655637E-04
         3.554800E-05    1.271691E-06    3.188817E-08    5.867730E-10    8.241493E-12    9.058793E-14    7.644043E-16    3.296261E-18   -8.478232E-20   -4.186905E-21
        -1.357997E-22
  14    -1.521547E-21   -3.964834E-20   -7.259003E-20    1.360522E-16    1.969499E-14    2.087139E-12    1.752851E-10    1.149416E-08    5.667124E-07    1.999174E-05
         4.755460E-04    7.150475E-03    6.458702E-02    0.354859         1.32097         2.77819         1.32097        0.354859        6.458702E-02    7.150475E-03
         4.755460E-04    1.999174E-05    5.667124E-07    1.149415E-08    1.752851E-10    2.087139E-12    1.969501E-14    1.360536E-16   -7.250566E-20   -3.964448E-20
        -1.521398E-21
  15    -1.128671E-20   -2.083589E-19    1.037580E-17    2.323920E-15    2.909120E-13    2.873057E-11    2.265065E-09    1.384215E-07    6.268035E-06    1.985631E-04
         4.097189E-03    5.065395E-02    0.347872         1.32097         3.43982         4.66474         3.43982         1.32097        0.347872        5.065395E-02
         4.097189E-03    1.985631E-04    6.268035E-06    1.384215E-07    2.265065E-09    2.873057E-11    2.909121E-13    2.323922E-15    1.037594E-17   -2.083524E-19
        -1.128645E-20
  16    -5.099224E-20   -4.897055E-19    9.599895E-17    1.594262E-14    1.861357E-12    1.743895E-10    1.302026E-08    7.474342E-07    3.140582E-05    9.071538E-04
         1.662920E-02    0.175525        0.971789         2.77819         4.66474         6.00856         4.66474         2.77819        0.971789        0.175525    
         1.662920E-02    9.071538E-04    3.140582E-05    7.474342E-07    1.302026E-08    1.743895E-10    1.861357E-12    1.594262E-14    9.599895E-17   -4.897055E-19
        -5.099224E-20
  17    -1.128647E-20   -2.083531E-19    1.037592E-17    2.323922E-15    2.909121E-13    2.873057E-11    2.265065E-09    1.384215E-07    6.268035E-06    1.985631E-04
         4.097189E-03    5.065395E-02    0.347872         1.32097         3.43982         4.66474         3.43982         1.32097        0.347872        5.065395E-02
         4.097189E-03    1.985631E-04    6.268035E-06    1.384215E-07    2.265065E-09    2.873057E-11    2.909120E-13    2.323920E-15    1.037580E-17   -2.083589E-19
        -1.128671E-20
  18    -1.521423E-21   -3.964511E-20   -7.251889E-20    1.360534E-16    1.969501E-14    2.087139E-12    1.752851E-10    1.149415E-08    5.667124E-07    1.999174E-05
         4.755460E-04    7.150475E-03    6.458702E-02    0.354859         1.32097         2.77819         1.32097        0.354859        6.458702E-02    7.150475E-03
         4.755460E-04    1.999174E-05    5.667124E-07    1.149416E-08    1.752851E-10    2.087139E-12    1.969499E-14    1.360522E-16   -7.259001E-20   -3.964834E-20
        -1.521547E-21
  19    -1.358088E-22   -4.187152E-21   -8.478789E-20    3.296170E-18    7.644032E-16    9.058792E-14    8.241493E-12    5.867730E-10    3.188817E-08    1.271691E-06
         3.554800E-05    6.655637E-04    8.100615E-03    6.458702E-02    0.347872        0.971789        0.347872        6.458702E-02    8.100615E-03    6.655637E-04
         3.554800E-05    1.271691E-06    3.188817E-08    5.867730E-10    8.241493E-12    9.058783E-14    7.643973E-16    3.295774E-18   -8.480980E-20   -4.188074E-21
        -1.358417E-22
  20    -8.705763E-24   -3.026288E-22   -8.731393E-21   -1.009115E-19    1.672384E-17    2.582331E-15    2.619111E-13    2.048740E-11    1.235255E-09    5.588865E-08
         1.833623E-06    4.220406E-05    6.655637E-04    7.150475E-03    5.065395E-02    0.175525        5.065395E-02    7.150475E-03    6.655637E-04    4.220406E-05
         1.833623E-06    5.588865E-08    1.235255E-09    2.048740E-11    2.619110E-13    2.582313E-15    1.672222E-17   -1.010195E-19   -8.736347E-21   -3.028100E-22
        -8.711496E-24
  21    -4.047486E-25   -1.577028E-23   -5.440146E-22   -1.433535E-20   -3.492997E-21    4.700796E-17    5.855799E-15    5.132029E-13    3.446977E-11    1.761240E-09
         6.683701E-08    1.833623E-06    3.554800E-05    4.755460E-04    4.097189E-03    1.662920E-02    4.097189E-03    4.755460E-04    3.554800E-05    1.833623E-06
         6.683701E-08    1.761240E-09    3.446977E-11    5.132027E-13    5.855756E-15    4.700293E-17   -3.878581E-21   -1.435419E-20   -5.447264E-22   -1.579257E-23
        -4.053664E-25
  22    -1.373646E-26   -6.040332E-25   -2.406585E-23   -8.155120E-22   -1.944351E-20    2.500531E-19    8.907907E-17    9.397462E-15    7.112596E-13    4.082987E-11
         1.761240E-09    5.588865E-08    1.271691E-06    1.999174E-05    1.985631E-04    9.071538E-04    1.985631E-04    1.999174E-05    1.271691E-06    5.588865E-08
         1.761240E-09    4.082987E-11    7.112594E-13    9.397382E-15    8.906797E-17    2.490947E-19   -1.949359E-20   -8.174775E-22   -2.412844E-23   -6.057284E-25
        -1.377772E-26
  23    -3.427362E-28   -1.718992E-26   -7.906930E-25   -3.182142E-23   -1.060501E-21   -2.278653E-20    5.520617E-19    1.211665E-16    1.097103E-14    7.112596E-13
         3.446977E-11    1.235255E-09    3.188817E-08    5.667124E-07    6.268035E-06    3.140582E-05    6.268035E-06    5.667124E-07    3.188817E-08    1.235255E-09
         3.446977E-11    7.112594E-13    1.097092E-14    1.211497E-16    5.503987E-19   -2.288158E-20   -1.064452E-21   -3.195121E-23   -7.942328E-25   -1.727331E-26
        -3.445200E-28
  24    -6.295364E-30   -3.649277E-28   -1.958571E-26   -9.291844E-25   -3.766674E-23   -1.228025E-21   -2.422246E-20    6.898726E-19    1.211672E-16    9.397467E-15
         5.132029E-13    2.048740E-11    5.867730E-10    1.149415E-08    1.384215E-07    7.474342E-07    1.384215E-07    1.149416E-08    5.867730E-10    2.048740E-11
         5.132027E-13    9.397382E-15    1.211497E-16    6.878292E-19   -2.435464E-20   -1.234013E-21   -3.787414E-23   -9.349741E-25   -1.972148E-26   -3.677029E-28
        -6.347275E-30
  25    -8.440824E-32   -5.756685E-30   -3.670000E-28   -2.078285E-26   -1.010048E-24   -4.075524E-23   -1.286949E-21   -2.421801E-20    5.521866E-19    8.908040E-17
         5.855804E-15    2.619111E-13    8.241493E-12    1.752851E-10    2.265065E-09    1.302026E-08    2.265065E-09    1.752851E-10    8.241493E-12    2.619110E-13
         5.855756E-15    8.906797E-17    5.503987E-19   -2.435464E-20   -1.293948E-21   -4.101883E-23   -1.017764E-24   -2.096610E-26   -3.706699E-28   -5.821061E-30
        -8.544937E-32
  26    -8.078847E-34   -6.656993E-32   -5.184705E-30   -3.589301E-28   -2.119983E-26   -1.035892E-24   -4.074791E-23   -1.227655E-21   -2.277671E-20    2.501981E-19
         4.700892E-17    2.582334E-15    9.058793E-14    2.087139E-12    2.873057E-11    1.743895E-10    2.873057E-11    2.087139E-12    9.058783E-14    2.582313E-15
         4.700293E-17    2.490947E-19   -2.288158E-20   -1.234013E-21   -4.101883E-23   -1.044499E-24   -2.141277E-26   -3.631912E-28   -5.256347E-30   -6.762613E-32
        -8.223701E-34
  27    -5.278457E-36   -5.492525E-34   -5.474300E-32   -4.811764E-30   -3.543725E-28   -2.119483E-26   -1.009650E-24   -3.764900E-23   -1.060001E-21   -1.943482E-20
        -3.407863E-21    1.672422E-17    7.644043E-16    1.969501E-14    2.909121E-13    1.861357E-12    2.909120E-13    1.969499E-14    7.643973E-16    1.672222E-17
        -3.878581E-21   -1.949359E-20   -1.064452E-21   -3.787414E-23   -1.017764E-24   -2.141277E-26   -3.588914E-28   -4.886505E-30   -5.576745E-32   -5.615048E-34
        -5.416544E-36
  28    -2.152604E-38   -3.079711E-36   -4.268810E-34   -5.055080E-32   -4.810255E-30   -3.587431E-28   -2.076965E-26   -9.285726E-25   -3.180254E-23   -8.151360E-22
        -1.433086E-20   -1.008828E-19    3.296261E-18    1.360536E-16    2.323922E-15    1.594262E-14    2.323920E-15    1.360522E-16    3.295774E-18   -1.010195E-19
        -1.435419E-20   -8.174775E-22   -3.195121E-23   -9.349741E-25   -2.096610E-26   -3.631912E-28   -4.886505E-30   -5.156480E-32   -4.377100E-34   -3.178663E-36
        -2.239426E-38
  29    -4.412604E-41   -1.074704E-38   -2.445868E-36   -4.266864E-34   -5.470379E-32   -5.180266E-30   -3.666700E-28   -1.956901E-26   -7.901201E-25   -2.405296E-23
        -5.438361E-22   -8.730008E-21   -8.478232E-20   -7.250566E-20    1.037594E-17    9.599895E-17    1.037580E-17   -7.259001E-20   -8.480980E-20   -8.736347E-21
        -5.447264E-22   -2.412844E-23   -7.942328E-25   -1.972148E-26   -3.706699E-28   -5.256347E-30   -5.576745E-32   -4.377100E-34   -2.531980E-36   -1.128752E-38
        -4.744069E-41
  30    -1.374779E-44   -1.981175E-41   -1.073771E-38   -3.076254E-36   -5.485794E-34   -6.648722E-32   -5.749871E-30   -3.645441E-28   -1.717524E-26   -6.036629E-25
        -1.576445E-23   -3.025764E-22   -4.186905E-21   -3.964448E-20   -2.083524E-19   -4.897055E-19   -2.083589E-19   -3.964834E-20   -4.188074E-21   -3.028100E-22
        -1.579257E-23   -6.057284E-25   -1.727331E-26   -3.677029E-28   -5.821061E-30   -6.762613E-32   -5.615048E-34   -3.178663E-36   -1.128752E-38   -2.178512E-41
        -2.007334E-44
  31      0.00000       -1.361414E-44   -4.400725E-41   -2.148092E-38   -5.268649E-36   -8.065276E-34   -8.428273E-32   -6.287467E-30   -3.423995E-28   -1.372699E-26
        -4.045816E-25   -8.704062E-24   -1.357997E-22   -1.521398E-21   -1.128645E-20   -5.099224E-20   -1.128671E-20   -1.521547E-21   -1.358417E-22   -8.711496E-24
        -4.053664E-25   -1.377772E-26   -3.445200E-28   -6.347275E-30   -8.544937E-32   -8.223701E-34   -5.416544E-36   -2.239426E-38   -4.744069E-41   -2.007334E-44
          0.00000    

 CONCENTRATION WILL BE SAVED ON UNIT 1030 AT END OF TIME STEP   87, STRESS PERIOD    2


  MASS BUDGET FOR ENTIRE MODEL AT END OF TIME STEP   87, STRESS PERIOD   2
  ---------------------------------------------------------------------------------------------------

     CUMULATIVE MASS      M       RATES FOR THIS TIME STEP      M/T          PACKAGE NAME    
     ------------------                 ------------------------                     ----------------

           IN:                                      IN:
           ---                                      ---
     STORAGE-AQUEOUS =  7491676941.0994       STORAGE-AQUEOUS =      519144.2133     MST                              
                 WEL =  7884000000.0000                   WEL =           0.0000     SSM_WEL-1                        
                 CHD =           0.0000                   CHD =           0.0000     SSM_CHD-1                        

            TOTAL IN = 15375676941.0994              TOTAL IN =      519144.2133

          OUT:                                     OUT:
          ----                                     ----
     STORAGE-AQUEOUS =  7888718480.3357       STORAGE-AQUEOUS =           4.2512     MST                              
                 WEL =  7486958460.7639                   WEL =      519139.9620     SSM_WEL-1                        
                 CHD =       7.5562E-18                   CHD =           0.0000     SSM_CHD-1                        

           TOTAL OUT = 15375676941.0996             TOTAL OUT =      519144.2133

            IN - OUT =      -1.6594E-04              IN - OUT =      -1.4191E-07

 PERCENT DISCREPANCY =          -0.00     PERCENT DISCREPANCY =          -0.00




         TIME SUMMARY AT END OF TIME STEP   87 IN STRESS PERIOD    2
                    SECONDS     MINUTES      HOURS       DAYS        YEARS
                    -----------------------------------------------------------
   TIME STEP LENGTH 2.16991E+06  36165.      602.75      25.115     6.87602E-02
 STRESS PERIOD TIME 1.88782E+08 3.14637E+06  52439.      2185.0      5.9821    
         TOTAL TIME 2.67622E+08 4.46037E+06  74339.      3097.5      8.4804    


end timestep


start timestep kper="2" kstp="88" mode="normal"

 UBDSV1 SAVING  STORAGE-AQUEOUS ON UNIT   1029 AT TIME STEP     88, STRESS PERIOD      2
 UBDSV1 SAVING     FLOW-JA-FACE ON UNIT   1029 AT TIME STEP     88, STRESS PERIOD      2
 UBDSV06 SAVING  SOURCE-SINK MIX IN MODEL GWT_P06-MF6      PACKAGE GWT_P06-MF6     CONNECTED TO MODEL GWT_P06-MF6      PACKAGE SSM              ON UNIT   1029 AT TIME STEP     88, STRESS PERIOD      2
1
  CONCENTRATION IN LAYER   1 AT END OF TIME STEP  88 IN STRESS PERIOD    2
  ---------------------------------------------------------------------------

                1               2               3               4               5               6               7               8               9              10
               11              12              13              14              15              16              17              18              19              20
               21              22              23              24              25              26              27              28              29              30
               31
 ................................................................................................................................................................................................................................................................................................................................................................................................................................................................................................................
   1      0.00000       -2.505309E-44   -5.164678E-41   -2.389422E-38   -5.723032E-36   -8.629962E-34   -8.916790E-32   -6.590204E-30   -3.560309E-28   -1.417525E-26
        -4.153445E-25   -8.892065E-24   -1.381463E-22   -1.540393E-21   -1.135573E-20   -5.089552E-20   -1.135550E-20   -1.540268E-21   -1.381131E-22   -8.886253E-24
        -4.147163E-25   -1.413314E-26   -3.542036E-28   -6.536809E-30   -8.809259E-32   -8.479727E-34   -5.579206E-36   -2.298593E-38   -4.816254E-41   -1.836679E-44
          0.00000    
   2    -2.505309E-44   -2.391108E-41   -1.206349E-38   -3.358749E-36   -5.890858E-34   -7.055365E-32   -6.043581E-30   -3.800442E-28   -1.777674E-26   -6.208067E-25
        -1.611904E-23   -3.076482E-22   -4.226163E-21   -3.946011E-20   -2.000486E-19   -4.233225E-19   -2.000427E-19   -3.945686E-20   -4.225233E-21   -3.074650E-22
        -1.609644E-23   -6.190823E-25   -1.769159E-26   -3.771998E-28   -5.977347E-30   -6.946280E-32   -5.763832E-34   -3.255760E-36   -1.149859E-38   -2.183844E-41
        -1.822459E-44
   3    -5.164678E-41   -1.206349E-38   -2.675622E-36   -4.591131E-34   -5.816562E-32   -5.456213E-30   -3.830895E-28   -2.029802E-26   -8.141280E-25   -2.462581E-23
        -5.527766E-22   -8.765807E-21   -8.195378E-20    2.396397E-20    1.182404E-17    1.051781E-16    1.182416E-17    2.403540E-20   -8.193176E-20   -8.760817E-21
        -5.520574E-22   -2.456235E-23   -8.105255E-25   -2.015933E-26   -3.793269E-28   -5.382496E-30   -5.710772E-32   -4.478896E-34   -2.586024E-36   -1.148879E-38
        -4.803697E-41
   4    -2.389422E-38   -3.358749E-36   -4.591131E-34   -5.377524E-32   -5.071409E-30   -3.753086E-28   -2.157787E-26   -9.583967E-25   -3.260363E-23   -8.282937E-22
        -1.427549E-20   -8.741685E-20    3.835411E-18    1.487897E-16    2.499158E-15    1.698750E-14    2.499160E-15    1.487909E-16    3.835807E-18   -8.730851E-20
        -1.425652E-20   -8.263077E-22   -3.247200E-23   -9.525023E-25   -2.139063E-26   -3.709393E-28   -4.994504E-30   -5.272818E-32   -4.476872E-34   -3.252148E-36
        -2.293851E-38
   5    -5.723032E-36   -5.890858E-34   -5.816562E-32   -5.071409E-30   -3.708404E-28   -2.203603E-26   -1.043197E-24   -3.863770E-23   -1.076731E-21   -1.915339E-20
         3.593754E-20    1.864217E-17    8.274322E-16    2.105761E-14    3.083607E-13    1.959018E-12    3.083607E-13    2.105763E-14    8.274381E-16    1.864379E-17
         3.632384E-20   -1.910299E-20   -1.072737E-21   -3.842727E-23   -1.035340E-24   -2.181843E-26   -3.662065E-28   -4.992947E-30   -5.706712E-32   -5.756831E-34
        -5.568954E-36
   6    -8.629962E-34   -7.055365E-32   -5.456213E-30   -3.753086E-28   -2.203603E-26   -1.070564E-24   -4.183832E-23   -1.246572E-21   -2.218571E-20    3.307127E-19
         5.173201E-17    2.782051E-15    9.651216E-14    2.204582E-12    3.012433E-11    1.816358E-10    3.012433E-11    2.204583E-12    9.651224E-14    2.782068E-15
         5.173700E-17    3.316723E-19   -2.209004E-20   -1.240519E-21   -4.157086E-23   -1.061799E-24   -2.181332E-26   -3.707472E-28   -5.377919E-30   -6.937718E-32
        -8.465613E-34
   7    -8.916790E-32   -6.043581E-30   -3.830895E-28   -2.157787E-26   -1.043197E-24   -4.183832E-23   -1.306441E-21   -2.339454E-20    6.738615E-19    9.748685E-17
         6.291472E-15    2.783457E-13    8.680806E-12    1.831780E-10    2.350288E-09    1.342216E-08    2.350288E-09    1.831780E-10    8.680807E-12    2.783458E-13
         6.291515E-15    9.749786E-17    6.755261E-19   -2.326149E-20   -1.299366E-21   -4.156342E-23   -1.034934E-24   -2.137712E-26   -3.789881E-28   -5.970325E-30
        -8.796270E-32
   8    -6.590204E-30   -3.800442E-28   -2.029802E-26   -9.583967E-25   -3.863770E-23   -1.246572E-21   -2.339454E-20    8.291834E-19    1.323036E-16    1.008156E-14
         5.444989E-13    2.153290E-11    6.114587E-10    1.188458E-08    1.421188E-07    7.624744E-07    1.421188E-07    1.188458E-08    6.114587E-10    2.153290E-11
         5.444991E-13    1.008164E-14    1.323203E-16    8.312286E-19   -2.325702E-20   -1.240145E-21   -3.840927E-23   -9.518790E-25   -2.014226E-26   -3.768061E-28
        -6.528674E-30
   9    -3.560309E-28   -1.777674E-26   -8.141280E-25   -3.260363E-23   -1.076731E-21   -2.218571E-20    6.738615E-19    1.323036E-16    1.176403E-14    7.539973E-13
         3.617864E-11    1.284492E-09    3.287311E-08    5.796402E-07    6.366444E-06    3.169882E-05    6.366444E-06    5.796402E-07    3.287311E-08    1.284492E-09
         3.617864E-11    7.539975E-13    1.176413E-14    1.323209E-16    6.756511E-19   -2.208016E-20   -1.072232E-21   -3.245283E-23   -8.099422E-25   -1.767660E-26
        -3.538583E-28
  10    -1.417525E-26   -6.208067E-25   -2.462581E-23   -8.282937E-22   -1.915339E-20    3.307127E-19    9.748685E-17    1.008156E-14    7.539973E-13    4.283364E-11
         1.829343E-09    5.749706E-08    1.296683E-06    2.022328E-05    1.994897E-04    9.058889E-04    1.994897E-04    2.022328E-05    1.296683E-06    5.749706E-08
         1.829343E-09    4.283364E-11    7.539975E-13    1.008164E-14    9.749918E-17    3.318174E-19   -1.909424E-20   -8.259277E-22   -2.454929E-23   -6.187056E-25
        -1.412347E-26
  11    -4.153445E-25   -1.611904E-23   -5.527766E-22   -1.427549E-20    3.593754E-20    5.173201E-17    6.291472E-15    5.444989E-13    3.617864E-11    1.829343E-09
         6.871026E-08    1.866324E-06    3.584974E-05    4.757521E-04    4.071870E-03    1.643352E-02    4.071870E-03    4.757521E-04    3.584974E-05    1.866324E-06
         6.871026E-08    1.829343E-09    3.617864E-11    5.444991E-13    6.291520E-15    5.173795E-17    3.640906E-20   -1.425201E-20   -5.518772E-22   -1.609054E-23
        -4.145465E-25
  12    -8.892065E-24   -3.076482E-22   -8.765807E-21   -8.741685E-20    1.864217E-17    2.782051E-15    2.783457E-13    2.153290E-11    1.284492E-09    5.749706E-08
         1.866324E-06    4.251275E-05    6.640511E-04    7.077201E-03    4.982638E-02    0.171813        4.982638E-02    7.077201E-03    6.640511E-04    4.251275E-05
         1.866324E-06    5.749706E-08    1.284492E-09    2.153290E-11    2.783458E-13    2.782071E-15    1.864417E-17   -8.727979E-20   -8.759423E-21   -3.074122E-22
        -8.884530E-24
  13    -1.381463E-22   -4.226163E-21   -8.195378E-20    3.835411E-18    8.274322E-16    9.651216E-14    8.680806E-12    6.114587E-10    3.287311E-08    1.296683E-06
         3.584974E-05    6.640511E-04    8.003647E-03    6.331719E-02    0.339240        0.944262        0.339240        6.331719E-02    8.003647E-03    6.640511E-04
         3.584974E-05    1.296683E-06    3.287311E-08    6.114587E-10    8.680807E-12    9.651225E-14    8.274391E-16    3.835898E-18   -8.192617E-20   -4.224985E-21
        -1.381039E-22
  14    -1.540393E-21   -3.946011E-20    2.396397E-20    1.487897E-16    2.105761E-14    2.204582E-12    1.831780E-10    1.188458E-08    5.796402E-07    2.022328E-05
         4.757521E-04    7.077201E-03    6.331719E-02    0.345415         1.28079         2.68845         1.28079        0.345415        6.331719E-02    7.077201E-03
         4.757521E-04    2.022328E-05    5.796402E-07    1.188458E-08    1.831780E-10    2.204583E-12    2.105764E-14    1.487911E-16    2.404866E-20   -3.945623E-20
        -1.540243E-21
  15    -1.135573E-20   -2.000486E-19    1.182404E-17    2.499158E-15    3.083607E-13    3.012433E-11    2.350288E-09    1.421188E-07    6.366444E-06    1.994897E-04
         4.071870E-03    4.982638E-02    0.339240         1.28079         3.32620         4.50747         3.32620         1.28079        0.339240        4.982638E-02
         4.071870E-03    1.994897E-04    6.366444E-06    1.421188E-07    2.350288E-09    3.012433E-11    3.083607E-13    2.499160E-15    1.182418E-17   -2.000420E-19
        -1.135547E-20
  16    -5.089552E-20   -4.233225E-19    1.051781E-16    1.698750E-14    1.959018E-12    1.816358E-10    1.342216E-08    7.624744E-07    3.169882E-05    9.058889E-04
         1.643352E-02    0.171813        0.944262         2.68845         4.50747         5.80247         4.50747         2.68845        0.944262        0.171813    
         1.643352E-02    9.058889E-04    3.169882E-05    7.624744E-07    1.342216E-08    1.816358E-10    1.959018E-12    1.698750E-14    1.051781E-16   -4.233225E-19
        -5.089552E-20
  17    -1.135550E-20   -2.000427E-19    1.182416E-17    2.499160E-15    3.083607E-13    3.012433E-11    2.350288E-09    1.421188E-07    6.366444E-06    1.994897E-04
         4.071870E-03    4.982638E-02    0.339240         1.28079         3.32620         4.50747         3.32620         1.28079        0.339240        4.982638E-02
         4.071870E-03    1.994897E-04    6.366444E-06    1.421188E-07    2.350288E-09    3.012433E-11    3.083607E-13    2.499158E-15    1.182404E-17   -2.000486E-19
        -1.135573E-20
  18    -1.540268E-21   -3.945686E-20    2.403540E-20    1.487909E-16    2.105763E-14    2.204583E-12    1.831780E-10    1.188458E-08    5.796402E-07    2.022328E-05
         4.757521E-04    7.077201E-03    6.331719E-02    0.345415         1.28079         2.68845         1.28079        0.345415        6.331719E-02    7.077201E-03
         4.757521E-04    2.022328E-05    5.796402E-07    1.188458E-08    1.831780E-10    2.204582E-12    2.105761E-14    1.487897E-16    2.396399E-20   -3.946011E-20
        -1.540393E-21
  19    -1.381131E-22   -4.225233E-21   -8.193176E-20    3.835807E-18    8.274381E-16    9.651224E-14    8.680807E-12    6.114587E-10    3.287311E-08    1.296683E-06
         3.584974E-05    6.640511E-04    8.003647E-03    6.331719E-02    0.339240        0.944262        0.339240        6.331719E-02    8.003647E-03    6.640511E-04
         3.584974E-05    1.296683E-06    3.287311E-08    6.114587E-10    8.680806E-12    9.651216E-14    8.274322E-16    3.835411E-18   -8.195378E-20   -4.226163E-21
        -1.381463E-22
  20    -8.886253E-24   -3.074650E-22   -8.760817E-21   -8.730851E-20    1.864379E-17    2.782068E-15    2.783458E-13    2.153290E-11    1.284492E-09    5.749706E-08
         1.866324E-06    4.251275E-05    6.640511E-04    7.077201E-03    4.982638E-02    0.171813        4.982638E-02    7.077201E-03    6.640511E-04    4.251275E-05
         1.866324E-06    5.749706E-08    1.284492E-09    2.153290E-11    2.783457E-13    2.782051E-15    1.864217E-17   -8.741685E-20   -8.765807E-21   -3.076482E-22
        -8.892065E-24
  21    -4.147163E-25   -1.609644E-23   -5.520574E-22   -1.425652E-20    3.632384E-20    5.173700E-17    6.291515E-15    5.444991E-13    3.617864E-11    1.829343E-09
         6.871026E-08    1.866324E-06    3.584974E-05    4.757521E-04    4.071870E-03    1.643352E-02    4.071870E-03    4.757521E-04    3.584974E-05    1.866324E-06
         6.871026E-08    1.829343E-09    3.617864E-11    5.444989E-13    6.291472E-15    5.173201E-17    3.593754E-20   -1.427549E-20   -5.527766E-22   -1.611904E-23
        -4.153445E-25
  22    -1.413314E-26   -6.190823E-25   -2.456235E-23   -8.263077E-22   -1.910299E-20    3.316723E-19    9.749786E-17    1.008164E-14    7.539975E-13    4.283364E-11
         1.829343E-09    5.749706E-08    1.296683E-06    2.022328E-05    1.994897E-04    9.058889E-04    1.994897E-04    2.022328E-05    1.296683E-06    5.749706E-08
         1.829343E-09    4.283364E-11    7.539973E-13    1.008156E-14    9.748685E-17    3.307127E-19   -1.915339E-20   -8.282937E-22   -2.462581E-23   -6.208067E-25
        -1.417525E-26
  23    -3.542036E-28   -1.769159E-26   -8.105255E-25   -3.247200E-23   -1.072737E-21   -2.209004E-20    6.755261E-19    1.323203E-16    1.176413E-14    7.539975E-13
         3.617864E-11    1.284492E-09    3.287311E-08    5.796402E-07    6.366444E-06    3.169882E-05    6.366444E-06    5.796402E-07    3.287311E-08    1.284492E-09
         3.617864E-11    7.539973E-13    1.176403E-14    1.323036E-16    6.738615E-19   -2.218571E-20   -1.076731E-21   -3.260363E-23   -8.141280E-25   -1.777673E-26
        -3.560309E-28
  24    -6.536809E-30   -3.771998E-28   -2.015933E-26   -9.525023E-25   -3.842727E-23   -1.240519E-21   -2.326149E-20    8.312286E-19    1.323209E-16    1.008164E-14
         5.444991E-13    2.153290E-11    6.114587E-10    1.188458E-08    1.421188E-07    7.624744E-07    1.421188E-07    1.188458E-08    6.114587E-10    2.153290E-11
         5.444989E-13    1.008156E-14    1.323036E-16    8.291834E-19   -2.339454E-20   -1.246572E-21   -3.863770E-23   -9.583967E-25   -2.029802E-26   -3.800442E-28
        -6.590204E-30
  25    -8.809259E-32   -5.977347E-30   -3.793269E-28   -2.139063E-26   -1.035340E-24   -4.157086E-23   -1.299366E-21   -2.325702E-20    6.756511E-19    9.749918E-17
         6.291520E-15    2.783458E-13    8.680807E-12    1.831780E-10    2.350288E-09    1.342216E-08    2.350288E-09    1.831780E-10    8.680806E-12    2.783457E-13
         6.291472E-15    9.748685E-17    6.738615E-19   -2.339454E-20   -1.306441E-21   -4.183832E-23   -1.043197E-24   -2.157787E-26   -3.830895E-28   -6.043581E-30
        -8.916790E-32
  26    -8.479727E-34   -6.946280E-32   -5.382496E-30   -3.709393E-28   -2.181843E-26   -1.061799E-24   -4.156342E-23   -1.240145E-21   -2.208016E-20    3.318174E-19
         5.173795E-17    2.782071E-15    9.651225E-14    2.204583E-12    3.012433E-11    1.816358E-10    3.012433E-11    2.204582E-12    9.651216E-14    2.782051E-15
         5.173201E-17    3.307127E-19   -2.218571E-20   -1.246572E-21   -4.183832E-23   -1.070564E-24   -2.203603E-26   -3.753086E-28   -5.456213E-30   -7.055365E-32
        -8.629962E-34
  27    -5.579206E-36   -5.763832E-34   -5.710772E-32   -4.994504E-30   -3.662065E-28   -2.181332E-26   -1.034934E-24   -3.840927E-23   -1.072232E-21   -1.909424E-20
         3.640906E-20    1.864417E-17    8.274391E-16    2.105764E-14    3.083607E-13    1.959018E-12    3.083607E-13    2.105761E-14    8.274322E-16    1.864217E-17
         3.593754E-20   -1.915339E-20   -1.076731E-21   -3.863770E-23   -1.043197E-24   -2.203603E-26   -3.708404E-28   -5.071409E-30   -5.816562E-32   -5.890858E-34
        -5.723032E-36
  28    -2.298593E-38   -3.255760E-36   -4.478896E-34   -5.272818E-32   -4.992947E-30   -3.707472E-28   -2.137712E-26   -9.518790E-25   -3.245283E-23   -8.259277E-22
        -1.425201E-20   -8.727979E-20    3.835898E-18    1.487911E-16    2.499160E-15    1.698750E-14    2.499158E-15    1.487897E-16    3.835411E-18   -8.741685E-20
        -1.427549E-20   -8.282937E-22   -3.260363E-23   -9.583967E-25   -2.157787E-26   -3.753086E-28   -5.071409E-30   -5.377524E-32   -4.591131E-34   -3.358749E-36
        -2.389422E-38
  29    -4.816254E-41   -1.149859E-38   -2.586024E-36   -4.476872E-34   -5.706712E-32   -5.377919E-30   -3.789881E-28   -2.014226E-26   -8.099422E-25   -2.454929E-23
        -5.518772E-22   -8.759423E-21   -8.192617E-20    2.404866E-20    1.182418E-17    1.051781E-16    1.182404E-17    2.396399E-20   -8.195378E-20   -8.765807E-21
        -5.527766E-22   -2.462581E-23   -8.141280E-25   -2.029802E-26   -3.830895E-28   -5.456213E-30   -5.816562E-32   -4.591131E-34   -2.675622E-36   -1.206349E-38
        -5.164678E-41
  30    -1.836679E-44   -2.183844E-41   -1.148879E-38   -3.252148E-36   -5.756831E-34   -6.937718E-32   -5.970325E-30   -3.768061E-28   -1.767660E-26   -6.187056E-25
        -1.609054E-23   -3.074122E-22   -4.224985E-21   -3.945623E-20   -2.000420E-19   -4.233225E-19   -2.000486E-19   -3.946011E-20   -4.226163E-21   -3.076482E-22
        -1.611904E-23   -6.208067E-25   -1.777673E-26   -3.800442E-28   -6.043581E-30   -7.055365E-32   -5.890858E-34   -3.358749E-36   -1.206349E-38   -2.391107E-41
        -2.505309E-44
  31      0.00000       -1.822459E-44   -4.803697E-41   -2.293851E-38   -5.568954E-36   -8.465613E-34   -8.796270E-32   -6.528674E-30   -3.538583E-28   -1.412347E-26
        -4.145465E-25   -8.884530E-24   -1.381039E-22   -1.540243E-21   -1.135547E-20   -5.089552E-20   -1.135573E-20   -1.540393E-21   -1.381463E-22   -8.892065E-24
        -4.153445E-25   -1.417525E-26   -3.560309E-28   -6.590204E-30   -8.916790E-32   -8.629962E-34   -5.723032E-36   -2.389422E-38   -5.164678E-41   -2.505309E-44
          0.00000    

 CONCENTRATION WILL BE SAVED ON UNIT 1030 AT END OF TIME STEP   88, STRESS PERIOD    2


  MASS BUDGET FOR ENTIRE MODEL AT END OF TIME STEP   88, STRESS PERIOD   2
  ---------------------------------------------------------------------------------------------------

     CUMULATIVE MASS      M       RATES FOR THIS TIME STEP      M/T          PACKAGE NAME    
     ------------------                 ------------------------                     ----------------

           IN:                                      IN:
           ---                                      ---
     STORAGE-AQUEOUS =  7504267855.6509       STORAGE-AQUEOUS =      501336.8716     MST                              
                 WEL =  7884000000.0000                   WEL =           0.0000     SSM_WEL-1                        
                 CHD =           0.0000                   CHD =           0.0000     SSM_CHD-1                        

            TOTAL IN = 15388267855.6509              TOTAL IN =      501336.8716

          OUT:                                     OUT:
          ----                                     ----
     STORAGE-AQUEOUS =  7888718577.9231       STORAGE-AQUEOUS =           3.8857     MST                              
                 WEL =  7499549277.7280                   WEL =      501332.9860     SSM_WEL-1                        
                 CHD =       7.5562E-18                   CHD =           0.0000     SSM_CHD-1                        

           TOTAL OUT = 15388267855.6511             TOTAL OUT =      501336.8716

            IN - OUT =      -1.6785E-04              IN - OUT =      -1.3557E-07

 PERCENT DISCREPANCY =          -0.00     PERCENT DISCREPANCY =          -0.00




         TIME SUMMARY AT END OF TIME STEP   88 IN STRESS PERIOD    2
                    SECONDS     MINUTES      HOURS       DAYS        YEARS
                    -----------------------------------------------------------
   TIME STEP LENGTH 2.16991E+06  36165.      602.75      25.115     6.87602E-02
 STRESS PERIOD TIME 1.90952E+08 3.18253E+06  53042.      2210.1      6.0509    
         TOTAL TIME 2.69792E+08 4.49653E+06  74942.      3122.6      8.5492    


end timestep


start timestep kper="2" kstp="89" mode="normal"

 UBDSV1 SAVING  STORAGE-AQUEOUS ON UNIT   1029 AT TIME STEP     89, STRESS PERIOD      2
 UBDSV1 SAVING     FLOW-JA-FACE ON UNIT   1029 AT TIME STEP     89, STRESS PERIOD      2
 UBDSV06 SAVING  SOURCE-SINK MIX IN MODEL GWT_P06-MF6      PACKAGE GWT_P06-MF6     CONNECTED TO MODEL GWT_P06-MF6      PACKAGE SSM              ON UNIT   1029 AT TIME STEP     89, STRESS PERIOD      2
1
  CONCENTRATION IN LAYER   1 AT END OF TIME STEP  89 IN STRESS PERIOD    2
  ---------------------------------------------------------------------------

                1               2               3               4               5               6               7               8               9              10
               11              12              13              14              15              16              17              18              19              20
               21              22              23              24              25              26              27              28              29              30
               31
 ................................................................................................................................................................................................................................................................................................................................................................................................................................................................................................................
   1      0.00000       -3.047506E-44   -5.613250E-41   -2.547800E-38   -6.044430E-36   -9.053606E-34   -9.302621E-32   -6.841094E-30   -3.678666E-28   -1.458226E-26
        -4.255180E-25   -9.075280E-24   -1.404661E-22   -1.559002E-21   -1.141880E-20   -5.075713E-20   -1.141856E-20   -1.558876E-21   -1.404324E-22   -9.069389E-24
        -4.248794E-25   -1.453931E-26   -3.659948E-28   -6.786179E-30   -9.191576E-32   -8.897818E-34   -5.894657E-36   -2.452799E-38   -5.247096E-41   -2.340980E-44
          0.00000    
   2    -3.047506E-44   -2.618063E-41   -1.288283E-38   -3.547546E-36   -6.178398E-34   -7.359088E-32   -6.273405E-30   -3.927358E-28   -1.829226E-26   -6.361775E-25
        -1.644977E-23   -3.124828E-22   -4.262036E-21   -3.920707E-20   -1.908383E-19   -3.515988E-19   -1.908324E-19   -3.920381E-20   -4.261098E-21   -3.122977E-22
        -1.642686E-23   -6.344235E-25   -1.820534E-26   -3.898208E-28   -6.205266E-30   -7.246441E-32   -6.046725E-34   -3.440374E-36   -1.229255E-38   -2.400428E-41
        -2.325857E-44
   3    -5.613250E-41   -1.288283E-38   -2.826194E-36   -4.814220E-34   -6.065325E-32   -5.662623E-30   -3.958620E-28   -2.088846E-26   -8.344044E-25   -2.512870E-23
        -5.607256E-22   -8.785094E-21   -7.872469E-20    1.288128E-19    1.337201E-17    1.149118E-16    1.337213E-17    1.288845E-19   -7.870256E-20   -8.780068E-21
        -5.599990E-22   -2.506436E-23   -8.307385E-25   -2.074680E-26   -3.920049E-28   -5.586781E-30   -5.956094E-32   -4.697913E-34   -2.732984E-36   -1.228226E-38
        -5.233828E-41
   4    -2.547800E-38   -3.547546E-36   -4.814220E-34   -5.606794E-32   -5.262350E-30   -3.877697E-28   -2.220435E-26   -9.822605E-25   -3.326180E-23   -8.387796E-22
        -1.416611E-20   -7.241410E-20    4.416065E-18    1.623568E-16    2.684306E-15    1.808353E-14    2.684308E-15    1.623580E-16    4.416460E-18   -7.230544E-20
        -1.414702E-20   -8.367729E-22   -3.312830E-23   -9.762602E-25   -2.201306E-26   -3.832901E-28   -5.183227E-30   -5.498689E-32   -4.695810E-34   -3.436600E-36
        -2.447818E-38
   5    -6.044430E-36   -6.178398E-34   -6.065325E-32   -5.262350E-30   -3.831281E-28   -2.267427E-26   -1.069101E-24   -3.940635E-23   -1.088341E-21   -1.874649E-20
         7.945783E-20    2.070123E-17    8.943780E-16    2.249261E-14    3.265979E-13    2.060379E-12    3.265979E-13    2.249263E-14    8.943838E-16    2.070284E-17
         7.984481E-20   -1.869576E-20   -1.084305E-21   -3.919288E-23   -1.061101E-24   -2.245192E-26   -3.783769E-28   -5.181623E-30   -5.951892E-32   -6.039446E-34
        -5.883943E-36
   6    -9.053606E-34   -7.359088E-32   -5.662623E-30   -3.877697E-28   -2.267427E-26   -1.097110E-24   -4.266222E-23   -1.258145E-21   -2.138037E-20    4.195338E-19
         5.679259E-17    2.993675E-15    1.027335E-13    2.326913E-12    3.156511E-11    1.890730E-10    3.156511E-11    2.326913E-12    1.027336E-13    2.993692E-15
         5.679754E-17    4.204944E-19   -2.128408E-20   -1.252027E-21   -4.239085E-23   -1.088185E-24   -2.244669E-26   -3.830928E-28   -5.582063E-30   -7.237578E-32
        -8.883143E-34
   7    -9.302621E-32   -6.273405E-30   -3.958620E-28   -2.220435E-26   -1.069101E-24   -4.266222E-23   -1.317818E-21   -2.229511E-20    8.079289E-19    1.064829E-16
         6.752296E-15    2.955637E-13    9.136983E-12    1.913054E-10    2.437353E-09    1.382964E-08    2.437353E-09    1.913054E-10    9.136983E-12    2.955639E-13
         6.752339E-15    1.064938E-16    8.095949E-19   -2.216120E-20   -1.310666E-21   -4.238329E-23   -1.060688E-24   -2.199924E-26   -3.916570E-28   -6.198030E-30
        -9.178136E-32
   8    -6.841094E-30   -3.927358E-28   -2.088846E-26   -9.822605E-25   -3.940635E-23   -1.258145E-21   -2.229511E-20    9.825767E-19    1.442135E-16    1.080435E-14
         5.772307E-13    2.261578E-11    6.367879E-10    1.228160E-08    1.458463E-07    7.775041E-07    1.458463E-07    1.228160E-08    6.367879E-10    2.261578E-11
         5.772308E-13    1.080443E-14    1.442300E-16    9.846233E-19   -2.215670E-20   -1.251649E-21   -3.917460E-23   -9.756252E-25   -2.072934E-26   -3.894169E-28
        -6.777801E-30
   9    -3.678666E-28   -1.829226E-26   -8.344044E-25   -3.326180E-23   -1.088341E-21   -2.138037E-20    8.079289E-19    1.442135E-16    1.260159E-14    7.986550E-13
         3.794562E-11    1.334872E-09    3.387048E-08    5.925952E-07    6.463958E-06    3.198467E-05    6.463958E-06    5.925952E-07    3.387048E-08    1.334872E-09
         3.794562E-11    7.986552E-13    1.260169E-14    1.442306E-16    8.097199E-19   -2.127414E-20   -1.083795E-21   -3.310885E-23   -8.301447E-25   -1.819002E-26
        -3.656409E-28
  10    -1.458226E-26   -6.361775E-25   -2.512870E-23   -8.387796E-22   -1.874649E-20    4.195338E-19    1.064829E-16    1.080435E-14    7.986550E-13    4.490430E-11
         1.898916E-09    5.912064E-08    1.321584E-06    2.045020E-05    2.003644E-04    9.044343E-04    2.003644E-04    2.045020E-05    1.321584E-06    5.912064E-08
         1.898916E-09    4.490430E-11    7.986552E-13    1.080443E-14    1.064951E-16    4.206396E-19   -1.868695E-20   -8.363890E-22   -2.505111E-23   -6.340402E-25
        -1.452943E-26
  11    -4.255180E-25   -1.644977E-23   -5.607256E-22   -1.416611E-20    7.945783E-20    5.679259E-17    6.752296E-15    5.772307E-13    3.794562E-11    1.898916E-09
         7.059895E-08    1.898782E-06    3.614158E-05    4.758359E-04    4.045981E-03    1.623832E-02    4.045981E-03    4.758359E-04    3.614158E-05    1.898782E-06
         7.059895E-08    1.898916E-09    3.794562E-11    5.772308E-13    6.752344E-15    5.679848E-17    7.993010E-20   -1.414247E-20   -5.598169E-22   -1.642088E-23
        -4.247068E-25
  12    -9.075280E-24   -3.124828E-22   -8.785094E-21   -7.241410E-20    2.070123E-17    2.993675E-15    2.955637E-13    2.261578E-11    1.334872E-09    5.912064E-08
         1.898782E-06    4.280910E-05    6.623799E-04    7.003607E-03    4.900860E-02    0.168178        4.900860E-02    7.003607E-03    6.623799E-04    4.280910E-05
         1.898782E-06    5.912064E-08    1.334872E-09    2.261578E-11    2.955639E-13    2.993695E-15    2.070322E-17   -7.227667E-20   -8.778666E-21   -3.122443E-22
        -9.067644E-24
  13    -1.404661E-22   -4.262036E-21   -7.872469E-20    4.416065E-18    8.943780E-16    1.027335E-13    9.136983E-12    6.367879E-10    3.387048E-08    1.321584E-06
         3.614158E-05    6.623799E-04    7.906706E-03    6.206919E-02    0.330829        0.917573        0.330829        6.206919E-02    7.906706E-03    6.623799E-04
         3.614158E-05    1.321584E-06    3.387048E-08    6.367879E-10    9.136983E-12    1.027336E-13    8.943849E-16    4.416550E-18   -7.869695E-20   -4.260848E-21
        -1.404232E-22
  14    -1.559002E-21   -3.920707E-20    1.288128E-19    1.623568E-16    2.249261E-14    2.326913E-12    1.913054E-10    1.228160E-08    5.925952E-07    2.045020E-05
         4.758359E-04    7.003607E-03    6.206919E-02    0.336233         1.24192         2.60185         1.24192        0.336233        6.206919E-02    7.003607E-03
         4.758359E-04    2.045020E-05    5.925952E-07    1.228160E-08    1.913054E-10    2.326913E-12    2.249264E-14    1.623582E-16    1.288978E-19   -3.920317E-20
        -1.558851E-21
  15    -1.141880E-20   -1.908383E-19    1.337201E-17    2.684306E-15    3.265979E-13    3.156511E-11    2.437353E-09    1.458463E-07    6.463958E-06    2.003644E-04
         4.045981E-03    4.900860E-02    0.330829         1.24192         3.21657         4.35587         3.21657         1.24192        0.330829        4.900860E-02
         4.045981E-03    2.003644E-04    6.463958E-06    1.458463E-07    2.437353E-09    3.156511E-11    3.265979E-13    2.684308E-15    1.337215E-17   -1.908317E-19
        -1.141853E-20
  16    -5.075713E-20   -3.515988E-19    1.149118E-16    1.808353E-14    2.060379E-12    1.890730E-10    1.382964E-08    7.775041E-07    3.198467E-05    9.044343E-04
         1.623832E-02    0.168178        0.917573         2.60185         4.35587         5.60390         4.35587         2.60185        0.917573        0.168178    
         1.623832E-02    9.044343E-04    3.198467E-05    7.775041E-07    1.382964E-08    1.890730E-10    2.060379E-12    1.808353E-14    1.149118E-16   -3.515988E-19
        -5.075713E-20
  17    -1.141856E-20   -1.908324E-19    1.337213E-17    2.684308E-15    3.265979E-13    3.156511E-11    2.437353E-09    1.458463E-07    6.463958E-06    2.003644E-04
         4.045981E-03    4.900860E-02    0.330829         1.24192         3.21657         4.35587         3.21657         1.24192        0.330829        4.900860E-02
         4.045981E-03    2.003644E-04    6.463958E-06    1.458463E-07    2.437353E-09    3.156511E-11    3.265979E-13    2.684306E-15    1.337201E-17   -1.908383E-19
        -1.141879E-20
  18    -1.558876E-21   -3.920381E-20    1.288845E-19    1.623580E-16    2.249263E-14    2.326913E-12    1.913054E-10    1.228160E-08    5.925952E-07    2.045020E-05
         4.758359E-04    7.003607E-03    6.206919E-02    0.336233         1.24192         2.60185         1.24192        0.336233        6.206919E-02    7.003607E-03
         4.758359E-04    2.045020E-05    5.925952E-07    1.228160E-08    1.913054E-10    2.326913E-12    2.249261E-14    1.623568E-16    1.288128E-19   -3.920707E-20
        -1.559002E-21
  19    -1.404324E-22   -4.261098E-21   -7.870256E-20    4.416460E-18    8.943838E-16    1.027336E-13    9.136983E-12    6.367879E-10    3.387048E-08    1.321584E-06
         3.614158E-05    6.623799E-04    7.906706E-03    6.206919E-02    0.330829        0.917573        0.330829        6.206919E-02    7.906706E-03    6.623799E-04
         3.614158E-05    1.321584E-06    3.387048E-08    6.367879E-10    9.136983E-12    1.027335E-13    8.943780E-16    4.416065E-18   -7.872469E-20   -4.262036E-21
        -1.404661E-22
  20    -9.069389E-24   -3.122977E-22   -8.780068E-21   -7.230544E-20    2.070284E-17    2.993692E-15    2.955639E-13    2.261578E-11    1.334872E-09    5.912064E-08
         1.898782E-06    4.280910E-05    6.623799E-04    7.003607E-03    4.900860E-02    0.168178        4.900860E-02    7.003607E-03    6.623799E-04    4.280910E-05
         1.898782E-06    5.912064E-08    1.334872E-09    2.261578E-11    2.955637E-13    2.993675E-15    2.070123E-17   -7.241410E-20   -8.785094E-21   -3.124828E-22
        -9.075279E-24
  21    -4.248794E-25   -1.642686E-23   -5.599990E-22   -1.414702E-20    7.984481E-20    5.679754E-17    6.752339E-15    5.772308E-13    3.794562E-11    1.898916E-09
         7.059895E-08    1.898782E-06    3.614158E-05    4.758359E-04    4.045981E-03    1.623832E-02    4.045981E-03    4.758359E-04    3.614158E-05    1.898782E-06
         7.059895E-08    1.898916E-09    3.794562E-11    5.772307E-13    6.752297E-15    5.679259E-17    7.945783E-20   -1.416611E-20   -5.607256E-22   -1.644977E-23
        -4.255180E-25
  22    -1.453931E-26   -6.344235E-25   -2.506436E-23   -8.367729E-22   -1.869576E-20    4.204944E-19    1.064938E-16    1.080443E-14    7.986552E-13    4.490430E-11
         1.898916E-09    5.912064E-08    1.321584E-06    2.045020E-05    2.003644E-04    9.044343E-04    2.003644E-04    2.045020E-05    1.321584E-06    5.912064E-08
         1.898916E-09    4.490430E-11    7.986550E-13    1.080435E-14    1.064829E-16    4.195338E-19   -1.874649E-20   -8.387796E-22   -2.512870E-23   -6.361775E-25
        -1.458226E-26
  23    -3.659948E-28   -1.820534E-26   -8.307385E-25   -3.312830E-23   -1.084305E-21   -2.128408E-20    8.095949E-19    1.442300E-16    1.260169E-14    7.986552E-13
         3.794562E-11    1.334872E-09    3.387048E-08    5.925952E-07    6.463958E-06    3.198467E-05    6.463958E-06    5.925952E-07    3.387048E-08    1.334872E-09
         3.794562E-11    7.986550E-13    1.260159E-14    1.442135E-16    8.079289E-19   -2.138037E-20   -1.088341E-21   -3.326180E-23   -8.344044E-25   -1.829226E-26
        -3.678666E-28
  24    -6.786179E-30   -3.898208E-28   -2.074680E-26   -9.762602E-25   -3.919288E-23   -1.252027E-21   -2.216120E-20    9.846233E-19    1.442306E-16    1.080443E-14
         5.772308E-13    2.261578E-11    6.367879E-10    1.228160E-08    1.458463E-07    7.775041E-07    1.458463E-07    1.228160E-08    6.367879E-10    2.261578E-11
         5.772307E-13    1.080435E-14    1.442135E-16    9.825767E-19   -2.229511E-20   -1.258145E-21   -3.940635E-23   -9.822605E-25   -2.088846E-26   -3.927358E-28
        -6.841094E-30
  25    -9.191576E-32   -6.205266E-30   -3.920049E-28   -2.201306E-26   -1.061101E-24   -4.239085E-23   -1.310666E-21   -2.215670E-20    8.097199E-19    1.064951E-16
         6.752344E-15    2.955639E-13    9.136983E-12    1.913054E-10    2.437353E-09    1.382964E-08    2.437353E-09    1.913054E-10    9.136983E-12    2.955637E-13
         6.752297E-15    1.064829E-16    8.079289E-19   -2.229511E-20   -1.317818E-21   -4.266222E-23   -1.069101E-24   -2.220435E-26   -3.958620E-28   -6.273405E-30
        -9.302621E-32
  26    -8.897818E-34   -7.246441E-32   -5.586781E-30   -3.832901E-28   -2.245192E-26   -1.088185E-24   -4.238329E-23   -1.251649E-21   -2.127414E-20    4.206396E-19
         5.679848E-17    2.993695E-15    1.027336E-13    2.326913E-12    3.156511E-11    1.890730E-10    3.156511E-11    2.326913E-12    1.027335E-13    2.993675E-15
         5.679259E-17    4.195338E-19   -2.138037E-20   -1.258145E-21   -4.266222E-23   -1.097110E-24   -2.267427E-26   -3.877697E-28   -5.662623E-30   -7.359088E-32
        -9.053606E-34
  27    -5.894657E-36   -6.046725E-34   -5.956094E-32   -5.183227E-30   -3.783769E-28   -2.244669E-26   -1.060688E-24   -3.917460E-23   -1.083795E-21   -1.868695E-20
         7.993010E-20    2.070322E-17    8.943849E-16    2.249264E-14    3.265979E-13    2.060379E-12    3.265979E-13    2.249261E-14    8.943780E-16    2.070123E-17
         7.945783E-20   -1.874649E-20   -1.088341E-21   -3.940635E-23   -1.069101E-24   -2.267427E-26   -3.831281E-28   -5.262350E-30   -6.065325E-32   -6.178398E-34
        -6.044430E-36
  28    -2.452799E-38   -3.440374E-36   -4.697913E-34   -5.498689E-32   -5.181623E-30   -3.830928E-28   -2.199924E-26   -9.756252E-25   -3.310885E-23   -8.363890E-22
        -1.414247E-20   -7.227667E-20    4.416550E-18    1.623582E-16    2.684308E-15    1.808353E-14    2.684306E-15    1.623568E-16    4.416065E-18   -7.241410E-20
        -1.416611E-20   -8.387796E-22   -3.326180E-23   -9.822605E-25   -2.220435E-26   -3.877697E-28   -5.262350E-30   -5.606794E-32   -4.814220E-34   -3.547546E-36
        -2.547800E-38
  29    -5.247096E-41   -1.229255E-38   -2.732984E-36   -4.695810E-34   -5.951892E-32   -5.582063E-30   -3.916570E-28   -2.072934E-26   -8.301447E-25   -2.505111E-23
        -5.598169E-22   -8.778666E-21   -7.869695E-20    1.288978E-19    1.337215E-17    1.149118E-16    1.337201E-17    1.288128E-19   -7.872469E-20   -8.785094E-21
        -5.607256E-22   -2.512870E-23   -8.344044E-25   -2.088846E-26   -3.958620E-28   -5.662623E-30   -6.065325E-32   -4.814220E-34   -2.826194E-36   -1.288283E-38
        -5.613250E-41
  30    -2.340980E-44   -2.400428E-41   -1.228226E-38   -3.436600E-36   -6.039446E-34   -7.237578E-32   -6.198030E-30   -3.894169E-28   -1.819002E-26   -6.340402E-25
        -1.642088E-23   -3.122443E-22   -4.260848E-21   -3.920317E-20   -1.908317E-19   -3.515988E-19   -1.908383E-19   -3.920707E-20   -4.262036E-21   -3.124828E-22
        -1.644977E-23   -6.361775E-25   -1.829226E-26   -3.927358E-28   -6.273405E-30   -7.359088E-32   -6.178398E-34   -3.547546E-36   -1.288283E-38   -2.618063E-41
        -3.047506E-44
  31      0.00000       -2.325857E-44   -5.233828E-41   -2.447818E-38   -5.883943E-36   -8.883143E-34   -9.178136E-32   -6.777801E-30   -3.656409E-28   -1.452943E-26
        -4.247068E-25   -9.067644E-24   -1.404232E-22   -1.558851E-21   -1.141853E-20   -5.075713E-20   -1.141879E-20   -1.559002E-21   -1.404661E-22   -9.075279E-24
        -4.255180E-25   -1.458226E-26   -3.678666E-28   -6.841094E-30   -9.302621E-32   -9.053606E-34   -6.044430E-36   -2.547800E-38   -5.613250E-41   -3.047506E-44
          0.00000    

 CONCENTRATION WILL BE SAVED ON UNIT 1030 AT END OF TIME STEP   89, STRESS PERIOD    2


  MASS BUDGET FOR ENTIRE MODEL AT END OF TIME STEP   89, STRESS PERIOD   2
  ---------------------------------------------------------------------------------------------------

     CUMULATIVE MASS      M       RATES FOR THIS TIME STEP      M/T          PACKAGE NAME    
     ------------------                 ------------------------                     ----------------

           IN:                                      IN:
           ---                                      ---
     STORAGE-AQUEOUS =  7516427903.4437       STORAGE-AQUEOUS =      484180.8984     MST                              
                 WEL =  7884000000.0000                   WEL =           0.0000     SSM_WEL-1                        
                 CHD =           0.0000                   CHD =           0.0000     SSM_CHD-1                        

            TOTAL IN = 15400427903.4437              TOTAL IN =      484180.8984

          OUT:                                     OUT:
          ----                                     ----
     STORAGE-AQUEOUS =  7888718666.4599       STORAGE-AQUEOUS =           3.5253     MST                              
                 WEL =  7511709236.9839                   WEL =      484177.3731     SSM_WEL-1                        
                 CHD =       7.5562E-18                   CHD =           0.0000     SSM_CHD-1                        

           TOTAL OUT = 15400427903.4439             TOTAL OUT =      484180.8984

            IN - OUT =      -1.7166E-04              IN - OUT =      -1.3172E-07

 PERCENT DISCREPANCY =          -0.00     PERCENT DISCREPANCY =          -0.00




         TIME SUMMARY AT END OF TIME STEP   89 IN STRESS PERIOD    2
                    SECONDS     MINUTES      HOURS       DAYS        YEARS
                    -----------------------------------------------------------
   TIME STEP LENGTH 2.16991E+06  36165.      602.75      25.115     6.87602E-02
 STRESS PERIOD TIME 1.93122E+08 3.21870E+06  53645.      2235.2      6.1197    
         TOTAL TIME 2.71962E+08 4.53270E+06  75545.      3147.7      8.6180    


end timestep


start timestep kper="2" kstp="90" mode="normal"

 UBDSV1 SAVING  STORAGE-AQUEOUS ON UNIT   1029 AT TIME STEP     90, STRESS PERIOD      2
 UBDSV1 SAVING     FLOW-JA-FACE ON UNIT   1029 AT TIME STEP     90, STRESS PERIOD      2
 UBDSV06 SAVING  SOURCE-SINK MIX IN MODEL GWT_P06-MF6      PACKAGE GWT_P06-MF6     CONNECTED TO MODEL GWT_P06-MF6      PACKAGE SSM              ON UNIT   1029 AT TIME STEP     90, STRESS PERIOD      2
1
  CONCENTRATION IN LAYER   1 AT END OF TIME STEP  90 IN STRESS PERIOD    2
  ---------------------------------------------------------------------------

                1               2               3               4               5               6               7               8               9              10
               11              12              13              14              15              16              17              18              19              20
               21              22              23              24              25              26              27              28              29              30
               31
 ................................................................................................................................................................................................................................................................................................................................................................................................................................................................................................................
   1      0.00000       -3.636843E-44   -6.091332E-41   -2.714961E-38   -6.381369E-36   -9.495277E-34   -9.702879E-32   -7.100163E-30   -3.800347E-28   -1.499895E-26
        -4.358893E-25   -9.261126E-24   -1.427994E-22   -1.577333E-21   -1.147535E-20   -5.057401E-20   -1.147511E-20   -1.577206E-21   -1.427654E-22   -9.255156E-24
        -4.352401E-25   -1.495512E-26   -3.781175E-28   -7.043693E-30   -9.588222E-32   -9.333756E-34   -6.225431E-36   -2.615620E-38   -5.706646E-41   -2.890515E-44
          0.00000    
   2    -3.636843E-44   -2.860173E-41   -1.374763E-38   -3.745420E-36   -6.478102E-34   -7.674134E-32   -6.510732E-30   -4.057858E-28   -1.882011E-26   -6.518434E-25
        -1.678466E-23   -3.173067E-22   -4.295444E-21   -3.888403E-20   -1.806690E-19   -2.742263E-19   -1.806631E-19   -3.888074E-20   -4.294499E-21   -3.171197E-22
        -1.676144E-23   -6.500594E-25   -1.873137E-26   -4.027988E-28   -6.440644E-30   -7.557824E-32   -6.341631E-34   -3.633913E-36   -1.313093E-38   -2.631703E-41
        -2.874438E-44
   3    -6.091332E-41   -1.374763E-38   -2.983985E-36   -5.046699E-34   -6.323320E-32   -5.875759E-30   -4.089957E-28   -2.149303E-26   -8.550644E-25   -2.563684E-23
        -5.685513E-22   -8.793246E-21   -7.509526E-20    2.424762E-19    1.502505E-17    1.252253E-16    1.502517E-17    2.425482E-19   -7.507303E-20   -8.788184E-21
        -5.678172E-22   -2.557161E-23   -8.513342E-25   -2.134836E-26   -4.050420E-28   -5.797739E-30   -6.210552E-32   -4.926191E-34   -2.887034E-36   -1.312013E-38
        -5.692630E-41
   4    -2.714961E-38   -3.745420E-36   -5.046699E-34   -5.844553E-32   -5.459496E-30   -4.005827E-28   -2.284582E-26   -1.006567E-24   -3.392517E-23   -8.488852E-22
        -1.402336E-20   -5.591350E-20    5.040162E-18    1.767949E-16    2.879779E-15    1.923248E-14    2.879782E-15    1.767961E-16    5.040557E-18   -5.580451E-20
        -1.400414E-20   -8.468577E-22   -3.378977E-23   -1.000459E-24   -2.265040E-26   -3.959902E-28   -5.378100E-30   -5.732952E-32   -4.924005E-34   -3.629972E-36
        -2.610388E-38
   5    -6.381369E-36   -6.478102E-34   -6.323320E-32   -5.459496E-30   -3.957623E-28   -2.332773E-26   -1.095478E-24   -4.017926E-23   -1.099195E-21   -1.826730E-20
         1.269331E-19    2.290728E-17    9.654188E-16    2.400275E-14    3.456470E-13    2.165519E-12    3.456471E-13    2.400277E-14    9.654246E-16    2.290888E-17
         1.273207E-19   -1.821625E-20   -1.095117E-21   -3.996272E-23   -1.087333E-24   -2.310055E-26   -3.908912E-28   -5.376446E-30   -6.206202E-32   -6.334065E-34
        -6.214238E-36
   6    -9.495277E-34   -7.674134E-32   -5.875759E-30   -4.005827E-28   -2.332773E-26   -1.124136E-24   -4.348948E-23   -1.268612E-21   -2.045663E-20    5.160346E-19
         6.220277E-17    3.217714E-15    1.092621E-13    2.454253E-12    3.305365E-11    1.967023E-10    3.305365E-11    2.454253E-12    1.092622E-13    3.217731E-15
         6.220768E-17    5.169963E-19   -2.035973E-20   -1.262429E-21   -4.321417E-23   -1.115049E-24   -2.309521E-26   -3.957877E-28   -5.792876E-30   -7.548653E-32
        -9.318500E-34
   7    -9.702879E-32   -6.510732E-30   -4.089957E-28   -2.284582E-26   -1.095478E-24   -4.348948E-23   -1.327944E-21   -2.104513E-20    9.532927E-19    1.160867E-16
         7.239291E-15    3.135899E-13    9.610375E-12    1.996696E-10    2.526256E-09    1.424261E-08    2.526256E-09    1.996696E-10    9.610376E-12    3.135901E-13
         7.239333E-15    1.160975E-16    9.549600E-19   -2.091036E-20   -1.320716E-21   -4.320650E-23   -1.086912E-24   -2.263627E-26   -4.046850E-28   -6.433188E-30
        -9.574318E-32
   8    -7.100163E-30   -4.057858E-28   -2.149303E-26   -1.006567E-24   -4.017926E-23   -1.268612E-21   -2.104513E-20    1.148791E-18    1.569190E-16    1.156734E-14
         6.114400E-13    2.373667E-11    6.627632E-10    1.268514E-08    1.496026E-07    7.925173E-07    1.496026E-07    1.268514E-08    6.627632E-10    2.373667E-11
         6.114402E-13    1.156742E-14    1.569353E-16    1.150839E-18   -2.090583E-20   -1.262046E-21   -3.994417E-23   -9.998124E-25   -2.133051E-26   -4.023843E-28
        -7.035066E-30
   9    -3.800347E-28   -1.882011E-26   -8.550644E-25   -3.392517E-23   -1.099195E-21   -2.045663E-20    9.532927E-19    1.569190E-16    1.348539E-14    8.452863E-13
         3.977153E-11    1.386392E-09    3.487993E-08    6.055717E-07    6.560539E-06    3.226335E-05    6.560539E-06    6.055717E-07    3.487993E-08    1.386392E-09
         3.977153E-11    8.452865E-13    1.348549E-14    1.569360E-16    9.550850E-19   -2.034972E-20   -1.094601E-21   -3.377005E-23   -8.507296E-25   -1.871572E-26
        -3.777547E-28
  10    -1.499895E-26   -6.518434E-25   -2.563684E-23   -8.488852E-22   -1.826730E-20    5.160346E-19    1.160867E-16    1.156734E-14    8.452863E-13    4.704276E-11
         1.969953E-09    6.075870E-08    1.346382E-06    2.067245E-05    2.011877E-04    9.027950E-04    2.011877E-04    2.067245E-05    1.346382E-06    6.075870E-08
         1.969953E-09    4.704276E-11    8.452865E-13    1.156742E-14    1.160988E-16    5.171416E-19   -1.820739E-20   -8.464699E-22   -2.555817E-23   -6.496695E-25
        -1.494504E-26
  11    -4.358893E-25   -1.678466E-23   -5.685513E-22   -1.402336E-20    1.269331E-19    6.220277E-17    7.239291E-15    6.114400E-13    3.977153E-11    1.969953E-09
         7.250224E-08    1.930980E-06    3.642351E-05    4.758001E-04    4.019552E-03    1.604369E-02    4.019552E-03    4.758001E-04    3.642351E-05    1.930980E-06
         7.250224E-08    1.969953E-09    3.977153E-11    6.114402E-13    7.239338E-15    6.220862E-17    1.274061E-19   -1.399957E-20   -5.676334E-22   -1.675539E-23
        -4.350646E-25
  12    -9.261126E-24   -3.173067E-22   -8.793246E-21   -5.591350E-20    2.290728E-17    3.217714E-15    3.135899E-13    2.373667E-11    1.386392E-09    6.075870E-08
         1.930980E-06    4.309312E-05    6.605549E-04    6.929745E-03    4.820068E-02    0.164618        4.820068E-02    6.929745E-03    6.605549E-04    4.309312E-05
         1.930980E-06    6.075870E-08    1.386392E-09    2.373667E-11    3.135900E-13    3.217734E-15    2.290925E-17   -5.577570E-20   -8.786773E-21   -3.170658E-22
        -9.253388E-24
  13    -1.427994E-22   -4.295444E-21   -7.509526E-20    5.040162E-18    9.654188E-16    1.092621E-13    9.610375E-12    6.627632E-10    3.487993E-08    1.346382E-06
         3.642351E-05    6.605549E-04    7.809847E-03    6.084284E-02    0.322632        0.891695        0.322632        6.084284E-02    7.809847E-03    6.605549E-04
         3.642351E-05    1.346382E-06    3.487993E-08    6.627632E-10    9.610376E-12    1.092622E-13    9.654257E-16    5.040647E-18   -7.506739E-20   -4.294247E-21
        -1.427560E-22
  14    -1.577333E-21   -3.888403E-20    2.424762E-19    1.767949E-16    2.400275E-14    2.454253E-12    1.996696E-10    1.268514E-08    6.055717E-07    2.067245E-05
         4.758001E-04    6.929745E-03    6.084284E-02    0.327305         1.20432         2.51826         1.20432        0.327305        6.084284E-02    6.929745E-03
         4.758001E-04    2.067245E-05    6.055717E-07    1.268514E-08    1.996696E-10    2.454253E-12    2.400277E-14    1.767963E-16    2.425615E-19   -3.888010E-20
        -1.577180E-21
  15    -1.147535E-20   -1.806690E-19    1.502505E-17    2.879779E-15    3.456470E-13    3.305365E-11    2.526256E-09    1.496026E-07    6.560539E-06    2.011877E-04
         4.019552E-03    4.820068E-02    0.322632         1.20432         3.11079         4.20973         3.11079         1.20432        0.322632        4.820068E-02
         4.019552E-03    2.011877E-04    6.560539E-06    1.496026E-07    2.526256E-09    3.305365E-11    3.456471E-13    2.879782E-15    1.502519E-17   -1.806623E-19
        -1.147508E-20
  16    -5.057401E-20   -2.742263E-19    1.252253E-16    1.923248E-14    2.165519E-12    1.967023E-10    1.424261E-08    7.925173E-07    3.226335E-05    9.027950E-04
         1.604369E-02    0.164618        0.891695         2.51826         4.20973         5.41259         4.20973         2.51826        0.891695        0.164618    
         1.604369E-02    9.027950E-04    3.226335E-05    7.925173E-07    1.424261E-08    1.967023E-10    2.165519E-12    1.923248E-14    1.252253E-16   -2.742263E-19
        -5.057401E-20
  17    -1.147511E-20   -1.806631E-19    1.502517E-17    2.879782E-15    3.456471E-13    3.305365E-11    2.526256E-09    1.496026E-07    6.560539E-06    2.011877E-04
         4.019552E-03    4.820068E-02    0.322632         1.20432         3.11079         4.20973         3.11079         1.20432        0.322632        4.820068E-02
         4.019552E-03    2.011877E-04    6.560539E-06    1.496026E-07    2.526256E-09    3.305365E-11    3.456470E-13    2.879779E-15    1.502505E-17   -1.806690E-19
        -1.147535E-20
  18    -1.577206E-21   -3.888074E-20    2.425482E-19    1.767961E-16    2.400277E-14    2.454253E-12    1.996696E-10    1.268514E-08    6.055717E-07    2.067245E-05
         4.758001E-04    6.929745E-03    6.084284E-02    0.327305         1.20432         2.51826         1.20432        0.327305        6.084284E-02    6.929745E-03
         4.758001E-04    2.067245E-05    6.055717E-07    1.268514E-08    1.996696E-10    2.454253E-12    2.400275E-14    1.767949E-16    2.424762E-19   -3.888403E-20
        -1.577333E-21
  19    -1.427654E-22   -4.294499E-21   -7.507303E-20    5.040557E-18    9.654246E-16    1.092622E-13    9.610376E-12    6.627632E-10    3.487993E-08    1.346382E-06
         3.642351E-05    6.605549E-04    7.809847E-03    6.084284E-02    0.322632        0.891695        0.322632        6.084284E-02    7.809847E-03    6.605549E-04
         3.642351E-05    1.346382E-06    3.487993E-08    6.627632E-10    9.610375E-12    1.092621E-13    9.654188E-16    5.040162E-18   -7.509526E-20   -4.295444E-21
        -1.427994E-22
  20    -9.255156E-24   -3.171197E-22   -8.788184E-21   -5.580451E-20    2.290888E-17    3.217731E-15    3.135901E-13    2.373667E-11    1.386392E-09    6.075870E-08
         1.930980E-06    4.309312E-05    6.605549E-04    6.929745E-03    4.820068E-02    0.164618        4.820068E-02    6.929745E-03    6.605549E-04    4.309312E-05
         1.930980E-06    6.075870E-08    1.386392E-09    2.373667E-11    3.135899E-13    3.217714E-15    2.290728E-17   -5.591349E-20   -8.793246E-21   -3.173067E-22
        -9.261126E-24
  21    -4.352401E-25   -1.676144E-23   -5.678172E-22   -1.400414E-20    1.273207E-19    6.220768E-17    7.239333E-15    6.114402E-13    3.977153E-11    1.969953E-09
         7.250224E-08    1.930980E-06    3.642351E-05    4.758001E-04    4.019552E-03    1.604369E-02    4.019552E-03    4.758001E-04    3.642351E-05    1.930980E-06
         7.250224E-08    1.969953E-09    3.977153E-11    6.114400E-13    7.239291E-15    6.220277E-17    1.269331E-19   -1.402336E-20   -5.685513E-22   -1.678466E-23
        -4.358893E-25
  22    -1.495512E-26   -6.500594E-25   -2.557161E-23   -8.468577E-22   -1.821625E-20    5.169963E-19    1.160975E-16    1.156742E-14    8.452865E-13    4.704276E-11
         1.969953E-09    6.075870E-08    1.346382E-06    2.067245E-05    2.011877E-04    9.027950E-04    2.011877E-04    2.067245E-05    1.346382E-06    6.075870E-08
         1.969953E-09    4.704276E-11    8.452863E-13    1.156734E-14    1.160867E-16    5.160346E-19   -1.826730E-20   -8.488852E-22   -2.563684E-23   -6.518434E-25
        -1.499895E-26
  23    -3.781175E-28   -1.873137E-26   -8.513342E-25   -3.378977E-23   -1.095117E-21   -2.035973E-20    9.549600E-19    1.569353E-16    1.348549E-14    8.452865E-13
         3.977153E-11    1.386392E-09    3.487993E-08    6.055717E-07    6.560539E-06    3.226335E-05    6.560539E-06    6.055717E-07    3.487993E-08    1.386392E-09
         3.977153E-11    8.452863E-13    1.348539E-14    1.569190E-16    9.532927E-19   -2.045663E-20   -1.099195E-21   -3.392517E-23   -8.550644E-25   -1.882011E-26
        -3.800347E-28
  24    -7.043693E-30   -4.027988E-28   -2.134836E-26   -1.000459E-24   -3.996272E-23   -1.262429E-21   -2.091036E-20    1.150839E-18    1.569360E-16    1.156742E-14
         6.114402E-13    2.373667E-11    6.627632E-10    1.268514E-08    1.496026E-07    7.925173E-07    1.496026E-07    1.268514E-08    6.627632E-10    2.373667E-11
         6.114400E-13    1.156734E-14    1.569190E-16    1.148791E-18   -2.104513E-20   -1.268612E-21   -4.017926E-23   -1.006567E-24   -2.149303E-26   -4.057858E-28
        -7.100163E-30
  25    -9.588222E-32   -6.440644E-30   -4.050420E-28   -2.265040E-26   -1.087333E-24   -4.321417E-23   -1.320716E-21   -2.090583E-20    9.550850E-19    1.160988E-16
         7.239338E-15    3.135900E-13    9.610376E-12    1.996696E-10    2.526256E-09    1.424261E-08    2.526256E-09    1.996696E-10    9.610375E-12    3.135899E-13
         7.239291E-15    1.160867E-16    9.532927E-19   -2.104513E-20   -1.327944E-21   -4.348948E-23   -1.095478E-24   -2.284582E-26   -4.089957E-28   -6.510732E-30
        -9.702879E-32
  26    -9.333756E-34   -7.557824E-32   -5.797739E-30   -3.959902E-28   -2.310055E-26   -1.115049E-24   -4.320650E-23   -1.262046E-21   -2.034972E-20    5.171416E-19
         6.220862E-17    3.217734E-15    1.092622E-13    2.454253E-12    3.305365E-11    1.967023E-10    3.305365E-11    2.454253E-12    1.092621E-13    3.217714E-15
         6.220277E-17    5.160346E-19   -2.045663E-20   -1.268612E-21   -4.348948E-23   -1.124136E-24   -2.332773E-26   -4.005827E-28   -5.875759E-30   -7.674134E-32
        -9.495277E-34
  27    -6.225431E-36   -6.341631E-34   -6.210552E-32   -5.378100E-30   -3.908912E-28   -2.309521E-26   -1.086912E-24   -3.994417E-23   -1.094601E-21   -1.820739E-20
         1.274061E-19    2.290925E-17    9.654257E-16    2.400277E-14    3.456471E-13    2.165519E-12    3.456470E-13    2.400275E-14    9.654188E-16    2.290728E-17
         1.269331E-19   -1.826730E-20   -1.099195E-21   -4.017926E-23   -1.095478E-24   -2.332773E-26   -3.957623E-28   -5.459496E-30   -6.323320E-32   -6.478102E-34
        -6.381369E-36
  28    -2.615620E-38   -3.633913E-36   -4.926191E-34   -5.732952E-32   -5.376446E-30   -3.957877E-28   -2.263627E-26   -9.998124E-25   -3.377005E-23   -8.464699E-22
        -1.399957E-20   -5.577570E-20    5.040647E-18    1.767963E-16    2.879782E-15    1.923248E-14    2.879779E-15    1.767949E-16    5.040162E-18   -5.591349E-20
        -1.402336E-20   -8.488852E-22   -3.392517E-23   -1.006567E-24   -2.284582E-26   -4.005827E-28   -5.459496E-30   -5.844553E-32   -5.046699E-34   -3.745420E-36
        -2.714961E-38
  29    -5.706646E-41   -1.313093E-38   -2.887034E-36   -4.924005E-34   -6.206202E-32   -5.792876E-30   -4.046850E-28   -2.133051E-26   -8.507296E-25   -2.555817E-23
        -5.676334E-22   -8.786773E-21   -7.506739E-20    2.425615E-19    1.502519E-17    1.252253E-16    1.502505E-17    2.424762E-19   -7.509526E-20   -8.793246E-21
        -5.685513E-22   -2.563684E-23   -8.550644E-25   -2.149303E-26   -4.089957E-28   -5.875759E-30   -6.323320E-32   -5.046699E-34   -2.983985E-36   -1.374763E-38
        -6.091332E-41
  30    -2.890515E-44   -2.631703E-41   -1.312013E-38   -3.629972E-36   -6.334065E-34   -7.548653E-32   -6.433188E-30   -4.023843E-28   -1.871572E-26   -6.496695E-25
        -1.675539E-23   -3.170658E-22   -4.294247E-21   -3.888010E-20   -1.806623E-19   -2.742263E-19   -1.806690E-19   -3.888403E-20   -4.295444E-21   -3.173067E-22
        -1.678466E-23   -6.518434E-25   -1.882011E-26   -4.057858E-28   -6.510732E-30   -7.674134E-32   -6.478102E-34   -3.745420E-36   -1.374763E-38   -2.860173E-41
        -3.636842E-44
  31      0.00000       -2.874438E-44   -5.692630E-41   -2.610388E-38   -6.214238E-36   -9.318500E-34   -9.574318E-32   -7.035066E-30   -3.777547E-28   -1.494504E-26
        -4.350646E-25   -9.253388E-24   -1.427560E-22   -1.577180E-21   -1.147508E-20   -5.057401E-20   -1.147535E-20   -1.577333E-21   -1.427994E-22   -9.261126E-24
        -4.358893E-25   -1.499895E-26   -3.800347E-28   -7.100163E-30   -9.702879E-32   -9.495277E-34   -6.381369E-36   -2.714961E-38   -6.091332E-41   -3.636842E-44
          0.00000    

 CONCENTRATION WILL BE SAVED ON UNIT 1030 AT END OF TIME STEP   90, STRESS PERIOD    2


  MASS BUDGET FOR ENTIRE MODEL AT END OF TIME STEP   90, STRESS PERIOD   2
  ---------------------------------------------------------------------------------------------------

     CUMULATIVE MASS      M       RATES FOR THIS TIME STEP      M/T          PACKAGE NAME    
     ------------------                 ------------------------                     ----------------

           IN:                                      IN:
           ---                                      ---
     STORAGE-AQUEOUS =  7528172815.8860       STORAGE-AQUEOUS =      467651.3082     MST                              
                 WEL =  7884000000.0000                   WEL =           0.0000     SSM_WEL-1                        
                 CHD =           0.0000                   CHD =           0.0000     SSM_CHD-1                        

            TOTAL IN = 15412172815.8860              TOTAL IN =      467651.3082

          OUT:                                     OUT:
          ----                                     ----
     STORAGE-AQUEOUS =  7888718747.7018       STORAGE-AQUEOUS =           3.2348     MST                              
                 WEL =  7523454068.1844                   WEL =      467648.0734     SSM_WEL-1                        
                 CHD =       7.5562E-18                   CHD =           0.0000     SSM_CHD-1                        

           TOTAL OUT = 15412172815.8862             TOTAL OUT =      467651.3082

            IN - OUT =      -1.7548E-04              IN - OUT =      -1.2724E-07

 PERCENT DISCREPANCY =          -0.00     PERCENT DISCREPANCY =          -0.00




         TIME SUMMARY AT END OF TIME STEP   90 IN STRESS PERIOD    2
                    SECONDS     MINUTES      HOURS       DAYS        YEARS
                    -----------------------------------------------------------
   TIME STEP LENGTH 2.16991E+06  36165.      602.75      25.115     6.87602E-02
 STRESS PERIOD TIME 1.95292E+08 3.25486E+06  54248.      2260.3      6.1884    
         TOTAL TIME 2.74132E+08 4.56886E+06  76148.      3172.8      8.6867    


end timestep


start timestep kper="2" kstp="91" mode="normal"

 UBDSV1 SAVING  STORAGE-AQUEOUS ON UNIT   1029 AT TIME STEP     91, STRESS PERIOD      2
 UBDSV1 SAVING     FLOW-JA-FACE ON UNIT   1029 AT TIME STEP     91, STRESS PERIOD      2
 UBDSV06 SAVING  SOURCE-SINK MIX IN MODEL GWT_P06-MF6      PACKAGE GWT_P06-MF6     CONNECTED TO MODEL GWT_P06-MF6      PACKAGE SSM              ON UNIT   1029 AT TIME STEP     91, STRESS PERIOD      2
1
  CONCENTRATION IN LAYER   1 AT END OF TIME STEP  91 IN STRESS PERIOD    2
  ---------------------------------------------------------------------------

                1               2               3               4               5               6               7               8               9              10
               11              12              13              14              15              16              17              18              19              20
               21              22              23              24              25              26              27              28              29              30
               31
 ................................................................................................................................................................................................................................................................................................................................................................................................................................................................................................................
   1      0.00000       -4.276393E-44   -6.600540E-41   -2.891326E-38   -6.734499E-36   -9.955637E-34   -1.011803E-31   -7.367638E-30   -3.925426E-28   -1.542547E-26
        -4.464605E-25   -9.449583E-24   -1.451444E-22   -1.595339E-21   -1.152481E-20   -5.034295E-20   -1.152457E-20   -1.595211E-21   -1.451100E-22   -9.443533E-24
        -4.458005E-25   -1.538076E-26   -3.905792E-28   -7.309574E-30   -9.999656E-32   -9.788199E-34   -6.572173E-36   -2.787468E-38   -6.196489E-41   -3.488274E-44
          0.00000    
   2    -4.276393E-44   -3.118268E-41   -1.466003E-38   -3.952748E-36   -6.790416E-34   -8.000867E-32   -6.755771E-30   -4.192025E-28   -1.936049E-26   -6.678067E-25
        -1.712362E-23   -3.221120E-22   -4.326124E-21   -3.848547E-20   -1.694786E-19   -1.908835E-19   -1.694726E-19   -3.848216E-20   -4.325170E-21   -3.219230E-22
        -1.710009E-23   -6.659924E-25   -1.926991E-26   -4.161419E-28   -6.683685E-30   -7.880791E-32   -6.648994E-34   -3.836752E-36   -1.401587E-38   -2.878482E-41
        -3.471189E-44
   3    -6.600540E-41   -1.466003E-38   -3.149296E-36   -5.288913E-34   -6.590843E-32   -6.095806E-30   -4.224988E-28   -2.211199E-26   -8.761096E-25   -2.614991E-23
        -5.762298E-22   -8.789233E-21   -7.103665E-20    3.654990E-19    1.678871E-17    1.361447E-16    1.678884E-17    3.655713E-19   -7.101432E-20   -8.784135E-21
        -5.754883E-22   -2.608378E-23   -8.723143E-25   -2.196425E-26   -4.184466E-28   -6.015554E-30   -6.474437E-32   -5.164068E-34   -3.048470E-36   -1.400454E-38
        -6.181688E-41
   4    -2.891326E-38   -3.952748E-36   -5.288913E-34   -6.091072E-32   -5.663017E-30   -4.137554E-28   -2.350251E-26   -1.031316E-24   -3.459312E-23   -8.585567E-22
        -1.384439E-20   -3.781193E-20    5.710241E-18    1.921471E-16    3.086004E-15    2.043610E-14    3.086006E-15    1.921483E-16    5.710634E-18   -3.770263E-20
        -1.382504E-20   -8.565084E-22   -3.445582E-23   -1.025100E-24   -2.330289E-26   -4.090479E-28   -5.579293E-30   -5.975876E-32   -5.161796E-34   -3.832636E-36
        -2.781974E-38
   5    -6.734499E-36   -6.790416E-34   -6.590843E-32   -5.663017E-30   -4.087509E-28   -2.399666E-26   -1.122325E-24   -4.095548E-23   -1.109201E-21   -1.770989E-20
         1.786274E-19    2.526852E-17    1.040744E-15    2.559084E-14    3.655318E-13    2.274517E-12    3.655318E-13    2.559086E-14    1.040750E-15    2.527011E-17
         1.790157E-19   -1.765851E-20   -1.105080E-21   -4.073585E-23   -1.114034E-24   -2.376458E-26   -4.037575E-28   -5.577588E-30   -6.469936E-32   -6.641129E-34
        -6.560482E-36
   6    -9.955637E-34   -8.000867E-32   -6.095806E-30   -4.137554E-28   -2.399666E-26   -1.151641E-24   -4.431896E-23   -1.277845E-21   -1.940500E-20    6.207164E-19
         6.798135E-17    3.454711E-15    1.161085E-13    2.586726E-12    3.459070E-11    2.045248E-10    3.459070E-11    2.586726E-12    1.161086E-13    3.454728E-15
         6.798623E-17    6.216790E-19   -1.930748E-20   -1.271596E-21   -4.403967E-23   -1.142389E-24   -2.375911E-26   -4.088400E-28   -6.010543E-30   -7.871301E-32
        -9.772343E-34
   7    -1.011803E-31   -6.755771E-30   -4.224988E-28   -2.350251E-26   -1.122325E-24   -4.431896E-23   -1.336677E-21   -1.963267E-20    1.110679E-18    1.263301E-16
         7.753545E-15    3.324493E-13    1.010133E-11    2.082729E-10    2.616994E-09    1.466095E-08    2.616994E-09    2.082729E-10    1.010133E-11    3.324494E-13
         7.753586E-15    1.263408E-16    1.112348E-18   -1.949705E-20   -1.329372E-21   -4.403189E-23   -1.113605E-24   -2.328845E-26   -4.180802E-28   -6.676004E-30
        -9.985273E-32
   8    -7.367638E-30   -4.192025E-28   -2.211199E-26   -1.031316E-24   -4.095548E-23   -1.277845E-21   -1.963267E-20    1.328646E-18    1.704611E-16    1.237215E-14
         6.471693E-13    2.489622E-11    6.893867E-10    1.309510E-08    1.533863E-07    8.075080E-07    1.533863E-07    1.309510E-08    6.893867E-10    2.489622E-11
         6.471695E-13    1.237223E-14    1.704773E-16    1.330695E-18   -1.949249E-20   -1.271209E-21   -4.071702E-23   -1.024441E-24   -2.194601E-26   -4.157168E-28
        -7.300692E-30
   9    -3.925426E-28   -1.936049E-26   -8.761096E-25   -3.459312E-23   -1.109201E-21   -1.940500E-20    1.110679E-18    1.704611E-16    1.441728E-14    8.939452E-13
         4.165720E-11    1.439051E-09    3.590111E-08    6.185639E-07    6.656149E-06    3.253481E-05    6.656149E-06    6.185639E-07    3.590111E-08    1.439051E-09
         4.165720E-11    8.939454E-13    1.441738E-14    1.704780E-16    1.112473E-18   -1.929741E-20   -1.104559E-21   -3.443581E-23   -8.716988E-25   -1.925392E-26
        -3.902073E-28
  10    -1.542547E-26   -6.678067E-25   -2.614991E-23   -8.585567E-22   -1.770989E-20    6.207164E-19    1.263301E-16    1.237215E-14    8.939452E-13    4.924987E-11
         2.042445E-09    6.241057E-08    1.371066E-06    2.088996E-05    2.019600E-04    9.009761E-04    2.019600E-04    2.088996E-05    1.371066E-06    6.241057E-08
         2.042445E-09    4.924987E-11    8.939453E-13    1.237223E-14    1.263421E-16    6.218244E-19   -1.764960E-20   -8.561165E-22   -2.607016E-23   -6.655958E-25
        -1.537047E-26
  11    -4.464605E-25   -1.712362E-23   -5.762298E-22   -1.384439E-20    1.786274E-19    6.798135E-17    7.753545E-15    6.471693E-13    4.165720E-11    2.042445E-09
         7.441927E-08    1.962903E-06    3.669551E-05    4.756474E-04    3.992610E-03    1.584971E-02    3.992610E-03    4.756474E-04    3.669551E-05    1.962903E-06
         7.441927E-08    2.042445E-09    4.165720E-11    6.471694E-13    7.753591E-15    6.798715E-17    1.791011E-19   -1.382044E-20   -5.753026E-22   -1.709395E-23
        -4.456221E-25
  12    -9.449583E-24   -3.221120E-22   -8.789233E-21   -3.781193E-20    2.526852E-17    3.454711E-15    3.324493E-13    2.489622E-11    1.439051E-09    6.241057E-08
         1.962903E-06    4.336487E-05    6.585810E-04    6.855665E-03    4.740269E-02    0.161131        4.740269E-02    6.855665E-03    6.585810E-04    4.336487E-05
         1.962903E-06    6.241057E-08    1.439051E-09    2.489622E-11    3.324494E-13    3.454731E-15    2.527048E-17   -3.767377E-20   -8.782715E-21   -3.218686E-22
        -9.441743E-24
  13    -1.451444E-22   -4.326124E-21   -7.103665E-20    5.710241E-18    1.040744E-15    1.161085E-13    1.010133E-11    6.893867E-10    3.590111E-08    1.371066E-06
         3.669551E-05    6.585810E-04    7.713126E-03    5.963795E-02    0.314645        0.866602        0.314645        5.963795E-02    7.713126E-03    6.585810E-04
         3.669551E-05    1.371066E-06    3.590111E-08    6.893867E-10    1.010133E-11    1.161086E-13    1.040751E-15    5.710724E-18   -7.100867E-20   -4.324917E-21
        -1.451006E-22
  14    -1.595339E-21   -3.848547E-20    3.654990E-19    1.921471E-16    2.559084E-14    2.586726E-12    2.082729E-10    1.309510E-08    6.185639E-07    2.088996E-05
         4.756474E-04    6.855665E-03    5.963795E-02    0.318625         1.16795         2.43758         1.16795        0.318625        5.963795E-02    6.855665E-03
         4.756474E-04    2.088996E-05    6.185639E-07    1.309510E-08    2.082729E-10    2.586726E-12    2.559086E-14    1.921485E-16    3.655846E-19   -3.848152E-20
        -1.595185E-21
  15    -1.152481E-20   -1.694786E-19    1.678871E-17    3.086004E-15    3.655318E-13    3.459070E-11    2.616994E-09    1.533863E-07    6.656149E-06    2.019600E-04
         3.992610E-03    4.740269E-02    0.314645         1.16795         3.00871         4.06885         3.00871         1.16795        0.314645        4.740269E-02
         3.992610E-03    2.019600E-04    6.656149E-06    1.533863E-07    2.616994E-09    3.459070E-11    3.655318E-13    3.086007E-15    1.678885E-17   -1.694719E-19
        -1.152454E-20
  16    -5.034295E-20   -1.908835E-19    1.361447E-16    2.043610E-14    2.274517E-12    2.045248E-10    1.466095E-08    8.075080E-07    3.253481E-05    9.009761E-04
         1.584971E-02    0.161131        0.866602         2.43758         4.06885         5.22825         4.06885         2.43758        0.866602        0.161131    
         1.584971E-02    9.009761E-04    3.253481E-05    8.075080E-07    1.466095E-08    2.045248E-10    2.274517E-12    2.043610E-14    1.361447E-16   -1.908835E-19
        -5.034295E-20
  17    -1.152457E-20   -1.694726E-19    1.678884E-17    3.086006E-15    3.655318E-13    3.459070E-11    2.616994E-09    1.533863E-07    6.656149E-06    2.019600E-04
         3.992610E-03    4.740269E-02    0.314645         1.16795         3.00871         4.06885         3.00871         1.16795        0.314645        4.740269E-02
         3.992610E-03    2.019600E-04    6.656149E-06    1.533863E-07    2.616994E-09    3.459070E-11    3.655318E-13    3.086004E-15    1.678871E-17   -1.694786E-19
        -1.152481E-20
  18    -1.595211E-21   -3.848216E-20    3.655713E-19    1.921483E-16    2.559086E-14    2.586726E-12    2.082729E-10    1.309510E-08    6.185639E-07    2.088996E-05
         4.756474E-04    6.855665E-03    5.963795E-02    0.318625         1.16795         2.43758         1.16795        0.318625        5.963795E-02    6.855665E-03
         4.756474E-04    2.088996E-05    6.185639E-07    1.309510E-08    2.082729E-10    2.586726E-12    2.559084E-14    1.921471E-16    3.654990E-19   -3.848547E-20
        -1.595339E-21
  19    -1.451100E-22   -4.325170E-21   -7.101432E-20    5.710634E-18    1.040750E-15    1.161086E-13    1.010133E-11    6.893867E-10    3.590111E-08    1.371066E-06
         3.669551E-05    6.585810E-04    7.713126E-03    5.963795E-02    0.314645        0.866602        0.314645        5.963795E-02    7.713126E-03    6.585810E-04
         3.669551E-05    1.371066E-06    3.590111E-08    6.893867E-10    1.010133E-11    1.161085E-13    1.040744E-15    5.710241E-18   -7.103665E-20   -4.326124E-21
        -1.451444E-22
  20    -9.443533E-24   -3.219230E-22   -8.784135E-21   -3.770263E-20    2.527011E-17    3.454728E-15    3.324494E-13    2.489622E-11    1.439051E-09    6.241057E-08
         1.962903E-06    4.336487E-05    6.585810E-04    6.855665E-03    4.740269E-02    0.161131        4.740269E-02    6.855665E-03    6.585810E-04    4.336487E-05
         1.962903E-06    6.241057E-08    1.439051E-09    2.489622E-11    3.324493E-13    3.454711E-15    2.526852E-17   -3.781193E-20   -8.789233E-21   -3.221120E-22
        -9.449583E-24
  21    -4.458005E-25   -1.710009E-23   -5.754883E-22   -1.382504E-20    1.790157E-19    6.798623E-17    7.753586E-15    6.471695E-13    4.165720E-11    2.042445E-09
         7.441927E-08    1.962903E-06    3.669551E-05    4.756474E-04    3.992610E-03    1.584971E-02    3.992610E-03    4.756474E-04    3.669551E-05    1.962903E-06
         7.441927E-08    2.042445E-09    4.165720E-11    6.471693E-13    7.753545E-15    6.798135E-17    1.786274E-19   -1.384439E-20   -5.762298E-22   -1.712362E-23
        -4.464605E-25
  22    -1.538076E-26   -6.659924E-25   -2.608378E-23   -8.565084E-22   -1.765851E-20    6.216790E-19    1.263408E-16    1.237223E-14    8.939454E-13    4.924987E-11
         2.042445E-09    6.241057E-08    1.371066E-06    2.088996E-05    2.019600E-04    9.009761E-04    2.019600E-04    2.088996E-05    1.371066E-06    6.241057E-08
         2.042445E-09    4.924987E-11    8.939452E-13    1.237215E-14    1.263301E-16    6.207164E-19   -1.770989E-20   -8.585567E-22   -2.614990E-23   -6.678067E-25
        -1.542547E-26
  23    -3.905792E-28   -1.926991E-26   -8.723143E-25   -3.445582E-23   -1.105080E-21   -1.930748E-20    1.112348E-18    1.704773E-16    1.441738E-14    8.939453E-13
         4.165720E-11    1.439051E-09    3.590111E-08    6.185639E-07    6.656149E-06    3.253481E-05    6.656149E-06    6.185639E-07    3.590111E-08    1.439051E-09
         4.165720E-11    8.939452E-13    1.441728E-14    1.704611E-16    1.110679E-18   -1.940500E-20   -1.109201E-21   -3.459312E-23   -8.761096E-25   -1.936049E-26
        -3.925426E-28
  24    -7.309574E-30   -4.161419E-28   -2.196425E-26   -1.025100E-24   -4.073585E-23   -1.271596E-21   -1.949705E-20    1.330695E-18    1.704780E-16    1.237223E-14
         6.471694E-13    2.489622E-11    6.893867E-10    1.309510E-08    1.533863E-07    8.075080E-07    1.533863E-07    1.309510E-08    6.893867E-10    2.489622E-11
         6.471693E-13    1.237215E-14    1.704611E-16    1.328646E-18   -1.963267E-20   -1.277845E-21   -4.095548E-23   -1.031316E-24   -2.211199E-26   -4.192025E-28
        -7.367637E-30
  25    -9.999656E-32   -6.683685E-30   -4.184466E-28   -2.330289E-26   -1.114034E-24   -4.403967E-23   -1.329372E-21   -1.949249E-20    1.112473E-18    1.263421E-16
         7.753591E-15    3.324494E-13    1.010133E-11    2.082729E-10    2.616994E-09    1.466095E-08    2.616994E-09    2.082729E-10    1.010133E-11    3.324493E-13
         7.753545E-15    1.263301E-16    1.110679E-18   -1.963267E-20   -1.336677E-21   -4.431896E-23   -1.122325E-24   -2.350251E-26   -4.224988E-28   -6.755771E-30
        -1.011803E-31
  26    -9.788199E-34   -7.880791E-32   -6.015554E-30   -4.090479E-28   -2.376458E-26   -1.142389E-24   -4.403189E-23   -1.271209E-21   -1.929741E-20    6.218244E-19
         6.798715E-17    3.454731E-15    1.161086E-13    2.586726E-12    3.459070E-11    2.045248E-10    3.459070E-11    2.586726E-12    1.161085E-13    3.454711E-15
         6.798135E-17    6.207164E-19   -1.940500E-20   -1.277845E-21   -4.431896E-23   -1.151641E-24   -2.399666E-26   -4.137554E-28   -6.095806E-30   -8.000867E-32
        -9.955637E-34
  27    -6.572173E-36   -6.648994E-34   -6.474437E-32   -5.579293E-30   -4.037575E-28   -2.375911E-26   -1.113605E-24   -4.071702E-23   -1.104559E-21   -1.764960E-20
         1.791011E-19    2.527048E-17    1.040751E-15    2.559086E-14    3.655318E-13    2.274517E-12    3.655318E-13    2.559084E-14    1.040744E-15    2.526852E-17
         1.786274E-19   -1.770989E-20   -1.109201E-21   -4.095548E-23   -1.122325E-24   -2.399666E-26   -4.087509E-28   -5.663017E-30   -6.590843E-32   -6.790415E-34
        -6.734499E-36
  28    -2.787468E-38   -3.836752E-36   -5.164068E-34   -5.975876E-32   -5.577588E-30   -4.088400E-28   -2.328845E-26   -1.024441E-24   -3.443581E-23   -8.561165E-22
        -1.382044E-20   -3.767377E-20    5.710724E-18    1.921485E-16    3.086007E-15    2.043610E-14    3.086004E-15    1.921471E-16    5.710241E-18   -3.781193E-20
        -1.384439E-20   -8.585567E-22   -3.459312E-23   -1.031316E-24   -2.350251E-26   -4.137554E-28   -5.663017E-30   -6.091072E-32   -5.288913E-34   -3.952748E-36
        -2.891326E-38
  29    -6.196489E-41   -1.401587E-38   -3.048470E-36   -5.161796E-34   -6.469936E-32   -6.010543E-30   -4.180802E-28   -2.194601E-26   -8.716988E-25   -2.607016E-23
        -5.753026E-22   -8.782715E-21   -7.100867E-20    3.655846E-19    1.678885E-17    1.361447E-16    1.678871E-17    3.654990E-19   -7.103665E-20   -8.789233E-21
        -5.762298E-22   -2.614990E-23   -8.761096E-25   -2.211199E-26   -4.224988E-28   -6.095806E-30   -6.590843E-32   -5.288913E-34   -3.149296E-36   -1.466003E-38
        -6.600540E-41
  30    -3.488274E-44   -2.878482E-41   -1.400454E-38   -3.832636E-36   -6.641129E-34   -7.871301E-32   -6.676004E-30   -4.157168E-28   -1.925392E-26   -6.655958E-25
        -1.709395E-23   -3.218686E-22   -4.324917E-21   -3.848152E-20   -1.694719E-19   -1.908835E-19   -1.694786E-19   -3.848547E-20   -4.326124E-21   -3.221120E-22
        -1.712362E-23   -6.678067E-25   -1.936049E-26   -4.192025E-28   -6.755771E-30   -8.000867E-32   -6.790415E-34   -3.952748E-36   -1.466003E-38   -3.118268E-41
        -4.276393E-44
  31      0.00000       -3.471189E-44   -6.181688E-41   -2.781974E-38   -6.560482E-36   -9.772343E-34   -9.985273E-32   -7.300692E-30   -3.902073E-28   -1.537047E-26
        -4.456221E-25   -9.441743E-24   -1.451006E-22   -1.595185E-21   -1.152454E-20   -5.034295E-20   -1.152481E-20   -1.595339E-21   -1.451444E-22   -9.449583E-24
        -4.464605E-25   -1.542547E-26   -3.925426E-28   -7.367637E-30   -1.011803E-31   -9.955637E-34   -6.734499E-36   -2.891326E-38   -6.600540E-41   -4.276393E-44
          0.00000    

 CONCENTRATION WILL BE SAVED ON UNIT 1030 AT END OF TIME STEP   91, STRESS PERIOD    2


  MASS BUDGET FOR ENTIRE MODEL AT END OF TIME STEP   91, STRESS PERIOD   2
  ---------------------------------------------------------------------------------------------------

     CUMULATIVE MASS      M       RATES FOR THIS TIME STEP      M/T          PACKAGE NAME    
     ------------------                 ------------------------                     ----------------

           IN:                                      IN:
           ---                                      ---
     STORAGE-AQUEOUS =  7539517722.2763       STORAGE-AQUEOUS =      451724.1266     MST                              
                 WEL =  7884000000.0000                   WEL =           0.0000     SSM_WEL-1                        
                 CHD =           0.0000                   CHD =           0.0000     SSM_CHD-1                        

            TOTAL IN = 15423517722.2763              TOTAL IN =      451724.1266

          OUT:                                     OUT:
          ----                                     ----
     STORAGE-AQUEOUS =  7888718825.4676       STORAGE-AQUEOUS =           3.0964     MST                              
                 WEL =  7534798896.8089                   WEL =      451721.0302     SSM_WEL-1                        
                 CHD =       7.5562E-18                   CHD =           0.0000     SSM_CHD-1                        

           TOTAL OUT = 15423517722.2765             TOTAL OUT =      451724.1266

            IN - OUT =      -1.7929E-04              IN - OUT =      -1.2229E-07

 PERCENT DISCREPANCY =          -0.00     PERCENT DISCREPANCY =          -0.00




         TIME SUMMARY AT END OF TIME STEP   91 IN STRESS PERIOD    2
                    SECONDS     MINUTES      HOURS       DAYS        YEARS
                    -----------------------------------------------------------
   TIME STEP LENGTH 2.16991E+06  36165.      602.75      25.115     6.87602E-02
 STRESS PERIOD TIME 1.97462E+08 3.29103E+06  54850.      2285.4      6.2572    
         TOTAL TIME 2.76302E+08 4.60503E+06  76750.      3197.9      8.7555    


end timestep


start timestep kper="2" kstp="92" mode="normal"

 UBDSV1 SAVING  STORAGE-AQUEOUS ON UNIT   1029 AT TIME STEP     92, STRESS PERIOD      2
 UBDSV1 SAVING     FLOW-JA-FACE ON UNIT   1029 AT TIME STEP     92, STRESS PERIOD      2
 UBDSV06 SAVING  SOURCE-SINK MIX IN MODEL GWT_P06-MF6      PACKAGE GWT_P06-MF6     CONNECTED TO MODEL GWT_P06-MF6      PACKAGE SSM              ON UNIT   1029 AT TIME STEP     92, STRESS PERIOD      2
1
  CONCENTRATION IN LAYER   1 AT END OF TIME STEP  92 IN STRESS PERIOD    2
  ---------------------------------------------------------------------------

                1               2               3               4               5               6               7               8               9              10
               11              12              13              14              15              16              17              18              19              20
               21              22              23              24              25              26              27              28              29              30
               31
 ................................................................................................................................................................................................................................................................................................................................................................................................................................................................................................................
   1      0.00000       -4.969401E-44   -7.142571E-41   -3.077330E-38   -7.104494E-36   -1.043537E-33   -1.054853E-31   -7.643745E-30   -4.053982E-28   -1.586201E-26
        -4.572336E-25   -9.640628E-24   -1.474992E-22   -1.612972E-21   -1.156657E-20   -5.006053E-20   -1.156632E-20   -1.612842E-21   -1.474644E-22   -9.634496E-24
        -4.565627E-25   -1.581639E-26   -4.033876E-28   -7.584051E-30   -1.042635E-31   -1.026183E-33   -6.935551E-36   -2.968773E-38   -6.718287E-41   -4.137411E-44
          0.00000    
   2    -4.969401E-44   -3.393218E-41   -1.562229E-38   -4.169922E-36   -7.115797E-34   -8.339657E-32   -7.008732E-30   -4.329942E-28   -1.991362E-26   -6.840696E-25
        -1.746652E-23   -3.268902E-22   -4.353791E-21   -3.800556E-20   -1.572018E-19   -1.012351E-19   -1.571958E-19   -3.800223E-20   -4.352831E-21   -3.266992E-22
        -1.744267E-23   -6.822246E-25   -1.982117E-26   -4.298586E-28   -6.934601E-30   -8.215710E-32   -6.969267E-34   -4.049276E-36   -1.494958E-38   -3.141615E-41
        -4.119263E-44
   3    -7.142571E-41   -1.562229E-38   -3.322438E-36   -5.541214E-34   -6.868195E-32   -6.322952E-30   -4.363798E-28   -2.274557E-26   -8.975414E-25   -2.666756E-23
        -5.837353E-22   -8.771959E-21   -6.651840E-20    4.984518E-19    1.866875E-17    1.476970E-16    1.866887E-17    4.985243E-19   -6.649596E-20   -8.766826E-21
        -5.829863E-22   -2.660054E-23   -8.936802E-25   -2.259471E-26   -4.322270E-28   -6.240415E-30   -6.748050E-32   -5.411895E-34   -3.217598E-36   -1.493769E-38
        -6.702662E-41
   4    -3.077330E-38   -4.169922E-36   -5.541214E-34   -6.346628E-32   -5.873088E-30   -4.272962E-28   -2.417468E-26   -1.056509E-24   -3.526497E-23   -8.677359E-22
        -1.362614E-20   -1.800073E-20    6.428946E-18    2.084579E-16    3.303416E-15    2.169621E-14    3.303418E-15    2.084591E-16    6.429339E-18   -1.789113E-20
        -1.360666E-20   -8.656666E-22   -3.512575E-23   -1.050182E-24   -2.397080E-26   -4.224712E-28   -5.786978E-30   -6.227737E-32   -5.409535E-34   -4.044978E-36
        -2.963006E-38
   5    -7.104494E-36   -7.115797E-34   -6.868195E-32   -5.873088E-30   -4.221021E-28   -2.468132E-26   -1.149643E-24   -4.173400E-23   -1.118256E-21   -1.706793E-20
         2.348185E-19    2.779349E-17    1.120551E-15    2.725976E-14    3.862759E-13    2.387451E-12    3.862760E-13    2.725978E-14    1.120556E-15    2.779507E-17
         2.352074E-19   -1.701623E-20   -1.114092E-21   -4.151124E-23   -1.141203E-24   -2.444425E-26   -4.169838E-28   -5.785221E-30   -6.743393E-32   -6.961095E-34
        -6.923342E-36
   6    -1.043537E-33   -8.339657E-32   -6.322952E-30   -4.272962E-28   -2.468132E-26   -1.179623E-24   -4.514941E-23   -1.285704E-21   -1.821539E-20    7.341055E-19
         7.414786E-17    3.705222E-15    1.232833E-13    2.724456E-12    3.617696E-11    2.125416E-10    3.617696E-11    2.724456E-12    1.232834E-13    3.705240E-15
         7.415270E-17    7.350690E-19   -1.811727E-20   -1.279390E-21   -4.486611E-23   -1.170205E-24   -2.443866E-26   -4.222578E-28   -6.235252E-30   -8.205892E-32
        -1.024535E-33
   7    -1.054853E-31   -7.008732E-30   -4.363798E-28   -2.417468E-26   -1.149643E-24   -4.514941E-23   -1.343865E-21   -1.804508E-20    1.280852E-18    1.372461E-16
         8.296172E-15    3.521670E-13    1.061020E-11    2.171173E-10    2.709559E-09    1.508457E-08    2.709559E-09    2.171173E-10    1.061020E-11    3.521672E-13
         8.296214E-15    1.372567E-16    1.282521E-18   -1.790861E-20   -1.336483E-21   -4.485821E-23   -1.140766E-24   -2.395603E-26   -4.318510E-28   -6.926689E-30
        -1.041147E-31
   8    -7.643745E-30   -4.329942E-28   -2.274557E-26   -1.056509E-24   -4.173400E-23   -1.285704E-21   -1.804508E-20    1.523003E-18    1.848825E-16    1.322043E-14
         6.844610E-13    2.609502E-11    7.166601E-10    1.351140E-08    1.571960E-07    8.224703E-07    1.571960E-07    1.351140E-08    7.166601E-10    2.609502E-11
         6.844612E-13    1.322050E-14    1.848986E-16    1.525053E-18   -1.790403E-20   -1.278999E-21   -4.149214E-23   -1.049511E-24   -2.257607E-26   -4.294226E-28
        -7.574907E-30
   9    -4.053982E-28   -1.991362E-26   -8.975414E-25   -3.526497E-23   -1.118256E-21   -1.821539E-20    1.280852E-18    1.848825E-16    1.539913E-14    9.446857E-13
         4.360340E-11    1.492843E-09    3.693368E-08    6.315660E-07    6.750755E-06    3.279903E-05    6.750755E-06    6.315660E-07    3.693368E-08    1.492843E-09
         4.360340E-11    9.446859E-13    1.539923E-14    1.848992E-16    1.282646E-18   -1.810714E-20   -1.113566E-21   -3.510546E-23   -8.930538E-25   -1.980484E-26
        -4.030065E-28
  10    -1.586201E-26   -6.840696E-25   -2.666756E-23   -8.677359E-22   -1.706793E-20    7.341055E-19    1.372461E-16    1.322043E-14    9.446857E-13    5.152649E-11
         2.116381E-09    6.407555E-08    1.395624E-06    2.110268E-05    2.026818E-04    8.989827E-04    2.026818E-04    2.110268E-05    1.395624E-06    6.407555E-08
         2.116381E-09    5.152649E-11    9.446859E-13    1.322051E-14    1.372580E-16    7.352144E-19   -1.700726E-20   -8.652708E-22   -2.658673E-23   -6.818212E-25
        -1.580590E-26
  11    -4.572336E-25   -1.746652E-23   -5.837353E-22   -1.362614E-20    2.348185E-19    7.414786E-17    8.296172E-15    6.844610E-13    4.360340E-11    2.116381E-09
         7.634921E-08    1.994536E-06    3.695759E-05    4.753804E-04    3.965186E-03    1.565645E-02    3.965186E-03    4.753804E-04    3.695759E-05    1.994536E-06
         7.634921E-08    2.116381E-09    4.360340E-11    6.844611E-13    8.296218E-15    7.415362E-17    2.352929E-19   -1.360204E-20   -5.827987E-22   -1.743645E-23
        -4.563814E-25
  12    -9.640628E-24   -3.268902E-22   -8.771959E-21   -1.800073E-20    2.779349E-17    3.705222E-15    3.521670E-13    2.609502E-11    1.492843E-09    6.407555E-08
         1.994536E-06    4.362436E-05    6.564630E-04    6.781416E-03    4.661467E-02    0.157716        4.661467E-02    6.781416E-03    6.564630E-04    4.362436E-05
         1.994536E-06    6.407555E-08    1.492843E-09    2.609502E-11    3.521672E-13    3.705242E-15    2.779544E-17   -1.786222E-20   -8.765397E-21   -3.266443E-22
        -9.632684E-24
  13    -1.474992E-22   -4.353791E-21   -6.651840E-20    6.428946E-18    1.120551E-15    1.232833E-13    1.061020E-11    7.166601E-10    3.693368E-08    1.395624E-06
         3.695759E-05    6.564630E-04    7.616594E-03    5.845430E-02    0.306861        0.842268        0.306861        5.845430E-02    7.616594E-03    6.564630E-04
         3.695759E-05    1.395624E-06    3.693368E-08    7.166601E-10    1.061020E-11    1.232834E-13    1.120557E-15    6.429429E-18   -6.649029E-20   -4.352575E-21
        -1.474549E-22
  14    -1.612972E-21   -3.800556E-20    4.984518E-19    2.084579E-16    2.725976E-14    2.724456E-12    2.171173E-10    1.351140E-08    6.315660E-07    2.110268E-05
         4.753804E-04    6.781416E-03    5.845430E-02    0.310185         1.13275         2.35971         1.13275        0.310185        5.845430E-02    6.781416E-03
         4.753804E-04    2.110268E-05    6.315660E-07    1.351140E-08    2.171173E-10    2.724457E-12    2.725979E-14    2.084593E-16    4.985377E-19   -3.800158E-20
        -1.612816E-21
  15    -1.156657E-20   -1.572018E-19    1.866875E-17    3.303416E-15    3.862759E-13    3.617696E-11    2.709559E-09    1.571960E-07    6.750755E-06    2.026818E-04
         3.965186E-03    4.661467E-02    0.306861         1.13275         2.91020         3.93301         2.91020         1.13275        0.306861        4.661467E-02
         3.965186E-03    2.026818E-04    6.750755E-06    1.571960E-07    2.709559E-09    3.617696E-11    3.862760E-13    3.303419E-15    1.866889E-17   -1.571951E-19
        -1.156629E-20
  16    -5.006053E-20   -1.012351E-19    1.476970E-16    2.169621E-14    2.387451E-12    2.125416E-10    1.508457E-08    8.224703E-07    3.279903E-05    8.989827E-04
         1.565645E-02    0.157716        0.842268         2.35971         3.93301         5.05062         3.93301         2.35971        0.842268        0.157716    
         1.565645E-02    8.989827E-04    3.279903E-05    8.224703E-07    1.508457E-08    2.125416E-10    2.387451E-12    2.169621E-14    1.476970E-16   -1.012351E-19
        -5.006053E-20
  17    -1.156632E-20   -1.571958E-19    1.866887E-17    3.303418E-15    3.862760E-13    3.617696E-11    2.709559E-09    1.571960E-07    6.750755E-06    2.026818E-04
         3.965186E-03    4.661467E-02    0.306861         1.13275         2.91020         3.93301         2.91020         1.13275        0.306861        4.661467E-02
         3.965186E-03    2.026818E-04    6.750755E-06    1.571960E-07    2.709559E-09    3.617696E-11    3.862759E-13    3.303416E-15    1.866875E-17   -1.572018E-19
        -1.156656E-20
  18    -1.612842E-21   -3.800223E-20    4.985243E-19    2.084591E-16    2.725978E-14    2.724456E-12    2.171173E-10    1.351140E-08    6.315660E-07    2.110268E-05
         4.753804E-04    6.781416E-03    5.845430E-02    0.310185         1.13275         2.35971         1.13275        0.310185        5.845430E-02    6.781416E-03
         4.753804E-04    2.110268E-05    6.315660E-07    1.351140E-08    2.171173E-10    2.724456E-12    2.725976E-14    2.084579E-16    4.984518E-19   -3.800556E-20
        -1.612972E-21
  19    -1.474644E-22   -4.352831E-21   -6.649596E-20    6.429339E-18    1.120556E-15    1.232834E-13    1.061020E-11    7.166601E-10    3.693368E-08    1.395624E-06
         3.695759E-05    6.564630E-04    7.616594E-03    5.845430E-02    0.306861        0.842268        0.306861        5.845430E-02    7.616594E-03    6.564630E-04
         3.695759E-05    1.395624E-06    3.693368E-08    7.166601E-10    1.061020E-11    1.232833E-13    1.120551E-15    6.428946E-18   -6.651840E-20   -4.353791E-21
        -1.474992E-22
  20    -9.634496E-24   -3.266992E-22   -8.766826E-21   -1.789113E-20    2.779507E-17    3.705240E-15    3.521672E-13    2.609502E-11    1.492843E-09    6.407555E-08
         1.994536E-06    4.362436E-05    6.564630E-04    6.781416E-03    4.661467E-02    0.157716        4.661467E-02    6.781416E-03    6.564630E-04    4.362436E-05
         1.994536E-06    6.407555E-08    1.492843E-09    2.609502E-11    3.521670E-13    3.705222E-15    2.779349E-17   -1.800073E-20   -8.771959E-21   -3.268901E-22
        -9.640627E-24
  21    -4.565627E-25   -1.744267E-23   -5.829863E-22   -1.360666E-20    2.352074E-19    7.415270E-17    8.296214E-15    6.844612E-13    4.360340E-11    2.116381E-09
         7.634921E-08    1.994536E-06    3.695759E-05    4.753804E-04    3.965186E-03    1.565645E-02    3.965186E-03    4.753804E-04    3.695759E-05    1.994536E-06
         7.634921E-08    2.116381E-09    4.360340E-11    6.844610E-13    8.296172E-15    7.414786E-17    2.348185E-19   -1.362614E-20   -5.837353E-22   -1.746652E-23
        -4.572336E-25
  22    -1.581639E-26   -6.822246E-25   -2.660054E-23   -8.656666E-22   -1.701623E-20    7.350690E-19    1.372567E-16    1.322050E-14    9.446859E-13    5.152649E-11
         2.116381E-09    6.407555E-08    1.395624E-06    2.110268E-05    2.026818E-04    8.989827E-04    2.026818E-04    2.110268E-05    1.395624E-06    6.407555E-08
         2.116381E-09    5.152649E-11    9.446857E-13    1.322043E-14    1.372461E-16    7.341055E-19   -1.706793E-20   -8.677359E-22   -2.666756E-23   -6.840696E-25
        -1.586201E-26
  23    -4.033876E-28   -1.982117E-26   -8.936802E-25   -3.512575E-23   -1.114092E-21   -1.811727E-20    1.282521E-18    1.848986E-16    1.539923E-14    9.446859E-13
         4.360340E-11    1.492843E-09    3.693368E-08    6.315660E-07    6.750755E-06    3.279903E-05    6.750755E-06    6.315660E-07    3.693368E-08    1.492843E-09
         4.360340E-11    9.446857E-13    1.539913E-14    1.848825E-16    1.280852E-18   -1.821539E-20   -1.118256E-21   -3.526497E-23   -8.975414E-25   -1.991362E-26
        -4.053982E-28
  24    -7.584051E-30   -4.298586E-28   -2.259471E-26   -1.050182E-24   -4.151124E-23   -1.279390E-21   -1.790861E-20    1.525053E-18    1.848992E-16    1.322051E-14
         6.844611E-13    2.609502E-11    7.166601E-10    1.351140E-08    1.571960E-07    8.224703E-07    1.571960E-07    1.351140E-08    7.166601E-10    2.609502E-11
         6.844610E-13    1.322043E-14    1.848825E-16    1.523003E-18   -1.804508E-20   -1.285704E-21   -4.173400E-23   -1.056509E-24   -2.274557E-26   -4.329942E-28
        -7.643745E-30
  25    -1.042635E-31   -6.934601E-30   -4.322270E-28   -2.397080E-26   -1.141203E-24   -4.486611E-23   -1.336483E-21   -1.790403E-20    1.282646E-18    1.372580E-16
         8.296218E-15    3.521672E-13    1.061020E-11    2.171173E-10    2.709559E-09    1.508457E-08    2.709559E-09    2.171173E-10    1.061020E-11    3.521670E-13
         8.296172E-15    1.372461E-16    1.280852E-18   -1.804508E-20   -1.343865E-21   -4.514941E-23   -1.149643E-24   -2.417468E-26   -4.363798E-28   -7.008732E-30
        -1.054853E-31
  26    -1.026183E-33   -8.215710E-32   -6.240415E-30   -4.224712E-28   -2.444425E-26   -1.170205E-24   -4.485821E-23   -1.278999E-21   -1.810714E-20    7.352144E-19
         7.415362E-17    3.705242E-15    1.232834E-13    2.724457E-12    3.617696E-11    2.125416E-10    3.617696E-11    2.724456E-12    1.232833E-13    3.705222E-15
         7.414786E-17    7.341055E-19   -1.821539E-20   -1.285704E-21   -4.514941E-23   -1.179623E-24   -2.468132E-26   -4.272962E-28   -6.322952E-30   -8.339657E-32
        -1.043537E-33
  27    -6.935551E-36   -6.969267E-34   -6.748050E-32   -5.786978E-30   -4.169838E-28   -2.443866E-26   -1.140766E-24   -4.149214E-23   -1.113566E-21   -1.700726E-20
         2.352929E-19    2.779544E-17    1.120557E-15    2.725979E-14    3.862760E-13    2.387451E-12    3.862759E-13    2.725976E-14    1.120551E-15    2.779349E-17
         2.348185E-19   -1.706793E-20   -1.118256E-21   -4.173400E-23   -1.149643E-24   -2.468132E-26   -4.221021E-28   -5.873088E-30   -6.868195E-32   -7.115797E-34
        -7.104494E-36
  28    -2.968773E-38   -4.049276E-36   -5.411895E-34   -6.227737E-32   -5.785221E-30   -4.222578E-28   -2.395603E-26   -1.049511E-24   -3.510546E-23   -8.652708E-22
        -1.360204E-20   -1.786222E-20    6.429429E-18    2.084593E-16    3.303419E-15    2.169621E-14    3.303416E-15    2.084579E-16    6.428946E-18   -1.800073E-20
        -1.362614E-20   -8.677359E-22   -3.526497E-23   -1.056509E-24   -2.417468E-26   -4.272962E-28   -5.873088E-30   -6.346628E-32   -5.541214E-34   -4.169922E-36
        -3.077330E-38
  29    -6.718287E-41   -1.494958E-38   -3.217598E-36   -5.409535E-34   -6.743393E-32   -6.235252E-30   -4.318510E-28   -2.257607E-26   -8.930538E-25   -2.658673E-23
        -5.827987E-22   -8.765397E-21   -6.649029E-20    4.985377E-19    1.866889E-17    1.476970E-16    1.866875E-17    4.984518E-19   -6.651840E-20   -8.771959E-21
        -5.837353E-22   -2.666756E-23   -8.975414E-25   -2.274557E-26   -4.363798E-28   -6.322952E-30   -6.868195E-32   -5.541214E-34   -3.322438E-36   -1.562229E-38
        -7.142571E-41
  30    -4.137411E-44   -3.141615E-41   -1.493769E-38   -4.044978E-36   -6.961095E-34   -8.205892E-32   -6.926689E-30   -4.294226E-28   -1.980484E-26   -6.818212E-25
        -1.743645E-23   -3.266443E-22   -4.352575E-21   -3.800158E-20   -1.571951E-19   -1.012351E-19   -1.572018E-19   -3.800556E-20   -4.353791E-21   -3.268901E-22
        -1.746652E-23   -6.840696E-25   -1.991362E-26   -4.329942E-28   -7.008732E-30   -8.339657E-32   -7.115797E-34   -4.169922E-36   -1.562229E-38   -3.393218E-41
        -4.969401E-44
  31      0.00000       -4.119263E-44   -6.702662E-41   -2.963006E-38   -6.923342E-36   -1.024535E-33   -1.041147E-31   -7.574907E-30   -4.030065E-28   -1.580590E-26
        -4.563814E-25   -9.632684E-24   -1.474549E-22   -1.612816E-21   -1.156629E-20   -5.006053E-20   -1.156656E-20   -1.612972E-21   -1.474992E-22   -9.640627E-24
        -4.572336E-25   -1.586201E-26   -4.053982E-28   -7.643745E-30   -1.054853E-31   -1.043537E-33   -7.104494E-36   -3.077330E-38   -7.142571E-41   -4.969401E-44
          0.00000    

 CONCENTRATION WILL BE SAVED ON UNIT 1030 AT END OF TIME STEP   92, STRESS PERIOD    2


  MASS BUDGET FOR ENTIRE MODEL AT END OF TIME STEP   92, STRESS PERIOD   2
  ---------------------------------------------------------------------------------------------------

     CUMULATIVE MASS      M       RATES FOR THIS TIME STEP      M/T          PACKAGE NAME    
     ------------------                 ------------------------                     ----------------

           IN:                                      IN:
           ---                                      ---
     STORAGE-AQUEOUS =  7550477167.9012       STORAGE-AQUEOUS =      436376.0998     MST                              
                 WEL =  7884000000.0000                   WEL =           0.0000     SSM_WEL-1                        
                 CHD =           0.0000                   CHD =           0.0000     SSM_CHD-1                        

            TOTAL IN = 15434477167.9012              TOTAL IN =      436376.0998

          OUT:                                     OUT:
          ----                                     ----
     STORAGE-AQUEOUS =  7888718899.7757       STORAGE-AQUEOUS =           2.9588     MST                              
                 WEL =  7545758268.1257                   WEL =      436373.1410     SSM_WEL-1                        
                 CHD =       7.5562E-18                   CHD =           0.0000     SSM_CHD-1                        

           TOTAL OUT = 15434477167.9014             TOTAL OUT =      436376.0998

            IN - OUT =      -1.8311E-04              IN - OUT =      -1.1816E-07

 PERCENT DISCREPANCY =          -0.00     PERCENT DISCREPANCY =          -0.00




         TIME SUMMARY AT END OF TIME STEP   92 IN STRESS PERIOD    2
                    SECONDS     MINUTES      HOURS       DAYS        YEARS
                    -----------------------------------------------------------
   TIME STEP LENGTH 2.16991E+06  36165.      602.75      25.115     6.87602E-02
 STRESS PERIOD TIME 1.99632E+08 3.32719E+06  55453.      2310.6      6.3259    
         TOTAL TIME 2.78472E+08 4.64119E+06  77353.      3223.1      8.8242    


end timestep


start timestep kper="2" kstp="93" mode="normal"

 UBDSV1 SAVING  STORAGE-AQUEOUS ON UNIT   1029 AT TIME STEP     93, STRESS PERIOD      2
 UBDSV1 SAVING     FLOW-JA-FACE ON UNIT   1029 AT TIME STEP     93, STRESS PERIOD      2
 UBDSV06 SAVING  SOURCE-SINK MIX IN MODEL GWT_P06-MF6      PACKAGE GWT_P06-MF6     CONNECTED TO MODEL GWT_P06-MF6      PACKAGE SSM              ON UNIT   1029 AT TIME STEP     93, STRESS PERIOD      2
1
  CONCENTRATION IN LAYER   1 AT END OF TIME STEP  93 IN STRESS PERIOD    2
  ---------------------------------------------------------------------------

                1               2               3               4               5               6               7               8               9              10
               11              12              13              14              15              16              17              18              19              20
               21              22              23              24              25              26              27              28              29              30
               31
 ................................................................................................................................................................................................................................................................................................................................................................................................................................................................................................................
   1      0.00000       -5.719283E-44   -7.719200E-41   -3.273428E-38   -7.492055E-36   -1.093518E-33   -1.099489E-31   -7.928721E-30   -4.186093E-28   -1.630874E-26
        -4.682105E-25   -9.834227E-24   -1.498617E-22   -1.630180E-21   -1.159995E-20   -4.972318E-20   -1.159971E-20   -1.630050E-21   -1.498265E-22   -9.828014E-24
        -4.675286E-25   -1.626221E-26   -4.165506E-28   -7.867358E-30   -1.086878E-31   -1.075534E-33   -7.316256E-36   -3.159984E-38   -7.273780E-41   -4.841252E-44
          0.00000    
   2    -5.719283E-44   -3.685934E-41   -1.663675E-38   -4.397348E-36   -7.454721E-34   -8.690887E-32   -7.269831E-30   -4.471694E-28   -2.047972E-26   -7.006340E-25
        -1.781320E-23   -3.316320E-22   -4.378147E-21   -3.744021E-20   -1.437702E-19   -4.931740E-21   -1.437641E-19   -3.743686E-20   -4.377179E-21   -3.314391E-22
        -1.778904E-23   -6.987580E-25   -2.038536E-26   -4.439573E-28   -7.193605E-30   -8.562960E-32   -7.302921E-34   -4.271886E-36   -1.593435E-38   -3.421993E-41
        -4.821983E-44
   3    -7.719200E-41   -1.663675E-38   -3.503732E-36   -5.803967E-34   -7.155688E-32   -6.557392E-30   -4.506472E-28   -2.339402E-26   -9.193609E-25   -2.718942E-23
        -5.910397E-22   -8.740256E-21   -6.151041E-20    6.383208E-19    2.067112E-17    1.599098E-16    2.067124E-17    6.383932E-19   -6.148786E-20   -8.735086E-21
        -5.902832E-22   -2.712149E-23   -9.154329E-25   -2.323999E-26   -4.463918E-28   -6.472514E-30   -7.031699E-32   -5.670033E-34   -3.394737E-36   -1.592187E-38
        -7.257291E-41
   4    -3.273428E-38   -4.397348E-36   -5.803967E-34   -6.611508E-32   -6.089886E-30   -4.412133E-28   -2.486258E-26   -1.082143E-24   -3.593997E-23   -8.763601E-22
        -1.336537E-20    3.634556E-21    7.199039E-18    2.257767E-16    3.532462E-15    2.301463E-14    3.532464E-15    2.257780E-16    7.199432E-18    3.744459E-21
        -1.334577E-20   -8.742698E-22   -3.579882E-23   -1.075705E-24   -2.465436E-26   -4.362684E-28   -6.001332E-30   -6.488819E-32   -5.667580E-34   -4.267401E-36
        -3.153932E-38
   5    -7.492055E-36   -7.454721E-34   -7.155688E-32   -6.089886E-30   -4.358239E-28   -2.538195E-26   -1.177428E-24   -4.251366E-23   -1.126254E-21   -1.633472E-20
         2.957984E-19    3.049105E-17    1.205038E-15    2.901245E-14    4.079035E-13    2.504400E-12    4.079035E-13    2.901247E-14    1.205044E-15    3.049263E-17
         2.961879E-19   -1.628270E-20   -1.122047E-21   -4.228775E-23   -1.168837E-24   -2.513980E-26   -4.305781E-28   -5.999522E-30   -7.026881E-32   -7.294430E-34
        -7.303510E-36
   6    -1.093518E-33   -8.690887E-32   -6.557392E-30   -4.412133E-28   -2.538195E-26   -1.208080E-24   -4.597943E-23   -1.292043E-21   -1.687711E-20    8.567544E-19
         8.072254E-17    3.969820E-15    1.307972E-13    2.867566E-12    3.781315E-11    2.207536E-10    3.781315E-11    2.867567E-12    1.307972E-13    3.969837E-15
         8.072735E-17    8.577187E-19   -1.677839E-20   -1.285662E-21   -4.569208E-23   -1.198492E-24   -2.513408E-26   -4.360494E-28   -6.467194E-30   -8.552805E-32
        -1.073822E-33
   7    -1.099489E-31   -7.269831E-30   -4.506472E-28   -2.486258E-26   -1.177428E-24   -4.597943E-23   -1.349341E-21   -1.626891E-20    1.464609E-18    1.488688E-16
         8.868313E-15    3.727687E-13    1.113733E-11    2.262050E-10    2.803944E-09    1.551335E-08    2.803944E-09    2.262050E-10    1.113733E-11    3.727689E-13
         8.868354E-15    1.488794E-16    1.466279E-18   -1.613161E-20   -1.341881E-21   -4.568406E-23   -1.168392E-24   -2.463925E-26   -4.460060E-28   -7.185456E-30
        -1.085340E-31
   8    -7.928721E-30   -4.471694E-28   -2.339402E-26   -1.082143E-24   -4.251366E-23   -1.292043E-21   -1.626891E-20    1.732764E-18    2.002270E-16    1.411386E-14
         7.233578E-13    2.733369E-11    7.445847E-10    1.393394E-08    1.610303E-07    8.373985E-07    1.610303E-07    1.393394E-08    7.445847E-10    2.733369E-11
         7.233580E-13    1.411393E-14    2.002430E-16    1.734815E-18   -1.612700E-20   -1.285267E-21   -4.226837E-23   -1.075022E-24   -2.322094E-26   -4.435102E-28
        -7.857946E-30
   9    -4.186093E-28   -2.047972E-26   -9.193609E-25   -3.593997E-23   -1.126254E-21   -1.687711E-20    1.464609E-18    2.002270E-16    1.643286E-14    9.975622E-13
         4.561091E-11    1.547767E-09    3.797727E-08    6.445726E-07    6.844322E-06    3.305599E-05    6.844322E-06    6.445726E-07    3.797727E-08    1.547767E-09
         4.561091E-11    9.975624E-13    1.643296E-14    2.002436E-16    1.466404E-18   -1.676820E-20   -1.121515E-21   -3.577823E-23   -9.147953E-25   -2.036869E-26
        -4.161601E-28
  10    -1.630874E-26   -7.006340E-25   -2.718942E-23   -8.763601E-22   -1.633472E-20    8.567544E-19    1.488688E-16    1.411386E-14    9.975622E-13    5.387342E-11
         2.191752E-09    6.575294E-08    1.420044E-06    2.131057E-05    2.033538E-04    8.968197E-04    2.033538E-04    2.131057E-05    1.420044E-06    6.575294E-08
         2.191752E-09    5.387342E-11    9.975624E-13    1.411394E-14    1.488806E-16    8.578641E-19   -1.627368E-20   -8.738700E-22   -2.710749E-23   -6.983477E-25
        -1.625150E-26
  11    -4.682105E-25   -1.781320E-23   -5.910397E-22   -1.336537E-20    2.957984E-19    8.072254E-17    8.868313E-15    7.233578E-13    4.561091E-11    2.191752E-09
         7.829120E-08    2.025865E-06    3.720976E-05    4.750017E-04    3.937305E-03    1.546399E-02    3.937305E-03    4.750017E-04    3.720976E-05    2.025865E-06
         7.829120E-08    2.191752E-09    4.561091E-11    7.233580E-13    8.868359E-15    8.072825E-17    2.962734E-19   -1.334112E-20   -5.900939E-22   -1.778274E-23
        -4.673444E-25
  12    -9.834227E-24   -3.316320E-22   -8.740256E-21    3.634556E-21    3.049105E-17    3.969820E-15    3.727687E-13    2.733369E-11    1.547767E-09    6.575294E-08
         2.025865E-06    4.387167E-05    6.542056E-04    6.707045E-03    4.583668E-02    0.154372        4.583668E-02    6.707045E-03    6.542056E-04    4.387167E-05
         2.025865E-06    6.575294E-08    1.547767E-09    2.733369E-11    3.727688E-13    3.969840E-15    3.049299E-17    3.773404E-21   -8.733649E-21   -3.313836E-22
        -9.826179E-24
  13    -1.498617E-22   -4.378147E-21   -6.151041E-20    7.199039E-18    1.205038E-15    1.307972E-13    1.113733E-11    7.445847E-10    3.797727E-08    1.420044E-06
         3.720976E-05    6.542056E-04    7.520298E-03    5.729168E-02    0.299276        0.818669        0.299276        5.729168E-02    7.520298E-03    6.542056E-04
         3.720976E-05    1.420044E-06    3.797727E-08    7.445847E-10    1.113733E-11    1.307973E-13    1.205045E-15    7.199521E-18   -6.148218E-20   -4.376922E-21
        -1.498169E-22
  14    -1.630180E-21   -3.744021E-20    6.383208E-19    2.257767E-16    2.901245E-14    2.867566E-12    2.262050E-10    1.393394E-08    6.445726E-07    2.131057E-05
         4.750017E-04    6.707045E-03    5.729168E-02    0.301978         1.09870         2.28452         1.09870        0.301978        5.729168E-02    6.707045E-03
         4.750017E-04    2.131057E-05    6.445726E-07    1.393394E-08    2.262050E-10    2.867567E-12    2.901247E-14    2.257782E-16    6.384066E-19   -3.743621E-20
        -1.630023E-21
  15    -1.159995E-20   -1.437702E-19    2.067112E-17    3.532462E-15    4.079035E-13    3.781315E-11    2.803944E-09    1.610303E-07    6.844322E-06    2.033538E-04
         3.937305E-03    4.583668E-02    0.299276         1.09870         2.81513         3.80204         2.81513         1.09870        0.299276        4.583668E-02
         3.937305E-03    2.033538E-04    6.844322E-06    1.610303E-07    2.803944E-09    3.781315E-11    4.079035E-13    3.532465E-15    2.067126E-17   -1.437634E-19
        -1.159968E-20
  16    -4.972318E-20   -4.931740E-21    1.599098E-16    2.301463E-14    2.504400E-12    2.207536E-10    1.551335E-08    8.373985E-07    3.305599E-05    8.968197E-04
         1.546399E-02    0.154372        0.818669         2.28452         3.80204         4.87942         3.80204         2.28452        0.818669        0.154372    
         1.546399E-02    8.968197E-04    3.305599E-05    8.373985E-07    1.551335E-08    2.207536E-10    2.504400E-12    2.301463E-14    1.599098E-16   -4.931751E-21
        -4.972318E-20
  17    -1.159971E-20   -1.437641E-19    2.067124E-17    3.532464E-15    4.079035E-13    3.781315E-11    2.803944E-09    1.610303E-07    6.844322E-06    2.033538E-04
         3.937305E-03    4.583668E-02    0.299276         1.09870         2.81513         3.80204         2.81513         1.09870        0.299276        4.583668E-02
         3.937305E-03    2.033538E-04    6.844322E-06    1.610303E-07    2.803944E-09    3.781315E-11    4.079035E-13    3.532462E-15    2.067112E-17   -1.437702E-19
        -1.159995E-20
  18    -1.630050E-21   -3.743686E-20    6.383932E-19    2.257780E-16    2.901247E-14    2.867567E-12    2.262050E-10    1.393394E-08    6.445726E-07    2.131057E-05
         4.750017E-04    6.707045E-03    5.729168E-02    0.301978         1.09870         2.28452         1.09870        0.301978        5.729168E-02    6.707045E-03
         4.750017E-04    2.131057E-05    6.445726E-07    1.393394E-08    2.262050E-10    2.867566E-12    2.901245E-14    2.257767E-16    6.383208E-19   -3.744021E-20
        -1.630180E-21
  19    -1.498265E-22   -4.377179E-21   -6.148786E-20    7.199432E-18    1.205044E-15    1.307972E-13    1.113733E-11    7.445847E-10    3.797727E-08    1.420044E-06
         3.720976E-05    6.542056E-04    7.520298E-03    5.729168E-02    0.299276        0.818669        0.299276        5.729168E-02    7.520298E-03    6.542056E-04
         3.720976E-05    1.420044E-06    3.797727E-08    7.445847E-10    1.113733E-11    1.307972E-13    1.205038E-15    7.199039E-18   -6.151041E-20   -4.378147E-21
        -1.498617E-22
  20    -9.828014E-24   -3.314391E-22   -8.735086E-21    3.744459E-21    3.049263E-17    3.969837E-15    3.727689E-13    2.733369E-11    1.547767E-09    6.575294E-08
         2.025865E-06    4.387167E-05    6.542056E-04    6.707045E-03    4.583668E-02    0.154372        4.583668E-02    6.707045E-03    6.542056E-04    4.387167E-05
         2.025865E-06    6.575294E-08    1.547767E-09    2.733369E-11    3.727687E-13    3.969820E-15    3.049105E-17    3.634559E-21   -8.740256E-21   -3.316320E-22
        -9.834227E-24
  21    -4.675286E-25   -1.778904E-23   -5.902832E-22   -1.334577E-20    2.961879E-19    8.072735E-17    8.868354E-15    7.233580E-13    4.561091E-11    2.191752E-09
         7.829120E-08    2.025865E-06    3.720976E-05    4.750017E-04    3.937305E-03    1.546399E-02    3.937305E-03    4.750017E-04    3.720976E-05    2.025865E-06
         7.829120E-08    2.191752E-09    4.561091E-11    7.233578E-13    8.868313E-15    8.072254E-17    2.957984E-19   -1.336537E-20   -5.910397E-22   -1.781320E-23
        -4.682105E-25
  22    -1.626221E-26   -6.987580E-25   -2.712149E-23   -8.742698E-22   -1.628270E-20    8.577187E-19    1.488794E-16    1.411393E-14    9.975624E-13    5.387342E-11
         2.191752E-09    6.575294E-08    1.420044E-06    2.131057E-05    2.033538E-04    8.968197E-04    2.033538E-04    2.131057E-05    1.420044E-06    6.575294E-08
         2.191752E-09    5.387342E-11    9.975622E-13    1.411386E-14    1.488688E-16    8.567544E-19   -1.633472E-20   -8.763601E-22   -2.718942E-23   -7.006340E-25
        -1.630874E-26
  23    -4.165506E-28   -2.038536E-26   -9.154329E-25   -3.579882E-23   -1.122047E-21   -1.677839E-20    1.466279E-18    2.002430E-16    1.643296E-14    9.975624E-13
         4.561091E-11    1.547767E-09    3.797727E-08    6.445726E-07    6.844322E-06    3.305599E-05    6.844322E-06    6.445726E-07    3.797727E-08    1.547767E-09
         4.561091E-11    9.975622E-13    1.643286E-14    2.002270E-16    1.464609E-18   -1.687711E-20   -1.126254E-21   -3.593997E-23   -9.193609E-25   -2.047972E-26
        -4.186093E-28
  24    -7.867358E-30   -4.439573E-28   -2.323999E-26   -1.075705E-24   -4.228775E-23   -1.285662E-21   -1.613161E-20    1.734815E-18    2.002436E-16    1.411394E-14
         7.233580E-13    2.733369E-11    7.445847E-10    1.393394E-08    1.610303E-07    8.373985E-07    1.610303E-07    1.393394E-08    7.445847E-10    2.733369E-11
         7.233578E-13    1.411386E-14    2.002270E-16    1.732764E-18   -1.626892E-20   -1.292043E-21   -4.251366E-23   -1.082143E-24   -2.339402E-26   -4.471694E-28
        -7.928721E-30
  25    -1.086878E-31   -7.193605E-30   -4.463918E-28   -2.465436E-26   -1.168837E-24   -4.569208E-23   -1.341881E-21   -1.612700E-20    1.466404E-18    1.488806E-16
         8.868359E-15    3.727688E-13    1.113733E-11    2.262050E-10    2.803944E-09    1.551335E-08    2.803944E-09    2.262050E-10    1.113733E-11    3.727687E-13
         8.868313E-15    1.488688E-16    1.464609E-18   -1.626892E-20   -1.349341E-21   -4.597943E-23   -1.177428E-24   -2.486258E-26   -4.506472E-28   -7.269831E-30
        -1.099489E-31
  26    -1.075534E-33   -8.562960E-32   -6.472514E-30   -4.362684E-28   -2.513980E-26   -1.198492E-24   -4.568406E-23   -1.285267E-21   -1.676820E-20    8.578641E-19
         8.072825E-17    3.969840E-15    1.307973E-13    2.867567E-12    3.781315E-11    2.207536E-10    3.781315E-11    2.867566E-12    1.307972E-13    3.969820E-15
         8.072254E-17    8.567544E-19   -1.687711E-20   -1.292043E-21   -4.597943E-23   -1.208080E-24   -2.538195E-26   -4.412133E-28   -6.557392E-30   -8.690887E-32
        -1.093518E-33
  27    -7.316256E-36   -7.302921E-34   -7.031699E-32   -6.001332E-30   -4.305781E-28   -2.513408E-26   -1.168392E-24   -4.226837E-23   -1.121515E-21   -1.627368E-20
         2.962734E-19    3.049299E-17    1.205045E-15    2.901247E-14    4.079035E-13    2.504400E-12    4.079035E-13    2.901245E-14    1.205038E-15    3.049105E-17
         2.957984E-19   -1.633472E-20   -1.126254E-21   -4.251366E-23   -1.177428E-24   -2.538195E-26   -4.358239E-28   -6.089886E-30   -7.155688E-32   -7.454721E-34
        -7.492055E-36
  28    -3.159984E-38   -4.271886E-36   -5.670033E-34   -6.488819E-32   -5.999522E-30   -4.360494E-28   -2.463925E-26   -1.075022E-24   -3.577823E-23   -8.738700E-22
        -1.334112E-20    3.773404E-21    7.199521E-18    2.257782E-16    3.532465E-15    2.301463E-14    3.532462E-15    2.257767E-16    7.199039E-18    3.634559E-21
        -1.336537E-20   -8.763601E-22   -3.593997E-23   -1.082143E-24   -2.486258E-26   -4.412133E-28   -6.089886E-30   -6.611508E-32   -5.803967E-34   -4.397348E-36
        -3.273428E-38
  29    -7.273780E-41   -1.593435E-38   -3.394737E-36   -5.667580E-34   -7.026881E-32   -6.467194E-30   -4.460060E-28   -2.322094E-26   -9.147953E-25   -2.710749E-23
        -5.900939E-22   -8.733649E-21   -6.148218E-20    6.384066E-19    2.067126E-17    1.599098E-16    2.067112E-17    6.383208E-19   -6.151041E-20   -8.740256E-21
        -5.910397E-22   -2.718942E-23   -9.193609E-25   -2.339402E-26   -4.506472E-28   -6.557392E-30   -7.155688E-32   -5.803967E-34   -3.503732E-36   -1.663675E-38
        -7.719200E-41
  30    -4.841252E-44   -3.421993E-41   -1.592187E-38   -4.267401E-36   -7.294430E-34   -8.552805E-32   -7.185456E-30   -4.435102E-28   -2.036869E-26   -6.983477E-25
        -1.778274E-23   -3.313836E-22   -4.376922E-21   -3.743621E-20   -1.437634E-19   -4.931751E-21   -1.437702E-19   -3.744021E-20   -4.378147E-21   -3.316320E-22
        -1.781320E-23   -7.006340E-25   -2.047972E-26   -4.471694E-28   -7.269831E-30   -8.690887E-32   -7.454721E-34   -4.397348E-36   -1.663675E-38   -3.685934E-41
        -5.719283E-44
  31      0.00000       -4.821983E-44   -7.257291E-41   -3.153932E-38   -7.303510E-36   -1.073822E-33   -1.085340E-31   -7.857946E-30   -4.161601E-28   -1.625150E-26
        -4.673444E-25   -9.826179E-24   -1.498169E-22   -1.630023E-21   -1.159968E-20   -4.972318E-20   -1.159995E-20   -1.630180E-21   -1.498617E-22   -9.834227E-24
        -4.682105E-25   -1.630874E-26   -4.186093E-28   -7.928721E-30   -1.099489E-31   -1.093518E-33   -7.492055E-36   -3.273428E-38   -7.719200E-41   -5.719283E-44
          0.00000    

 CONCENTRATION WILL BE SAVED ON UNIT 1030 AT END OF TIME STEP   93, STRESS PERIOD    2


  MASS BUDGET FOR ENTIRE MODEL AT END OF TIME STEP   93, STRESS PERIOD   2
  ---------------------------------------------------------------------------------------------------

     CUMULATIVE MASS      M       RATES FOR THIS TIME STEP      M/T          PACKAGE NAME    
     ------------------                 ------------------------                     ----------------

           IN:                                      IN:
           ---                                      ---
     STORAGE-AQUEOUS =  7561065140.8477       STORAGE-AQUEOUS =      421585.0415     MST                              
                 WEL =  7884000000.0000                   WEL =           0.0000     SSM_WEL-1                        
                 CHD =           0.0000                   CHD =           0.0000     SSM_CHD-1                        

            TOTAL IN = 15445065140.8477              TOTAL IN =      421585.0415

          OUT:                                     OUT:
          ----                                     ----
     STORAGE-AQUEOUS =  7888718970.6467       STORAGE-AQUEOUS =           2.8219     MST                              
                 WEL =  7556346170.2012                   WEL =      421582.2196     SSM_WEL-1                        
                 CHD =       7.5562E-18                   CHD =           0.0000     SSM_CHD-1                        

           TOTAL OUT = 15445065140.8479             TOTAL OUT =      421585.0415

            IN - OUT =      -1.8692E-04              IN - OUT =      -1.1356E-07

 PERCENT DISCREPANCY =          -0.00     PERCENT DISCREPANCY =          -0.00




         TIME SUMMARY AT END OF TIME STEP   93 IN STRESS PERIOD    2
                    SECONDS     MINUTES      HOURS       DAYS        YEARS
                    -----------------------------------------------------------
   TIME STEP LENGTH 2.16991E+06  36165.      602.75      25.115     6.87602E-02
 STRESS PERIOD TIME 2.01801E+08 3.36336E+06  56056.      2335.7      6.3947    
         TOTAL TIME 2.80641E+08 4.67736E+06  77956.      3248.2      8.8930    


end timestep


start timestep kper="2" kstp="94" mode="normal"

 UBDSV1 SAVING  STORAGE-AQUEOUS ON UNIT   1029 AT TIME STEP     94, STRESS PERIOD      2
 UBDSV1 SAVING     FLOW-JA-FACE ON UNIT   1029 AT TIME STEP     94, STRESS PERIOD      2
 UBDSV06 SAVING  SOURCE-SINK MIX IN MODEL GWT_P06-MF6      PACKAGE GWT_P06-MF6     CONNECTED TO MODEL GWT_P06-MF6      PACKAGE SSM              ON UNIT   1029 AT TIME STEP     94, STRESS PERIOD      2
1
  CONCENTRATION IN LAYER   1 AT END OF TIME STEP  94 IN STRESS PERIOD    2
  ---------------------------------------------------------------------------

                1               2               3               4               5               6               7               8               9              10
               11              12              13              14              15              16              17              18              19              20
               21              22              23              24              25              26              27              28              29              30
               31
 ................................................................................................................................................................................................................................................................................................................................................................................................................................................................................................................
   1      0.00000       -6.529641E-44   -8.332282E-41   -3.480092E-38   -7.897904E-36   -1.145579E-33   -1.145760E-31   -8.222804E-30   -4.321840E-28   -1.676583E-26
        -4.793932E-25   -1.003034E-23   -1.522295E-22   -1.646910E-21   -1.162428E-20   -4.932713E-20   -1.162403E-20   -1.646777E-21   -1.521939E-22   -1.002405E-23
        -4.787001E-25   -1.671838E-26   -4.300763E-28   -8.159732E-30   -1.132746E-31   -1.126945E-33   -7.715006E-36   -3.361566E-38   -7.864790E-41   -5.603303E-44
          0.00000    
   2    -6.529641E-44   -3.997368E-41   -1.770584E-38   -4.635448E-36   -7.807677E-34   -9.054948E-32   -7.539287E-30   -4.617368E-28   -2.105901E-26   -7.175015E-25
        -1.816352E-23   -3.363275E-22   -4.398873E-21   -3.678331E-20   -1.291118E-19    9.839041E-20   -1.291057E-19   -3.677994E-20   -4.397896E-21   -3.361327E-22
        -1.813904E-23   -7.155940E-25   -2.096271E-26   -4.584467E-28   -7.460917E-30   -8.922932E-32   -7.650440E-34   -4.504999E-36   -1.697257E-38   -3.720549E-41
        -5.582849E-44
   3    -8.332282E-41   -1.770584E-38   -3.693513E-36   -6.077548E-34   -7.453640E-32   -6.799322E-30   -4.653097E-28   -2.405757E-26   -9.415681E-25   -2.771506E-23
        -5.981131E-22   -8.692882E-21   -5.598194E-20    7.885777E-19    2.280202E-17    1.728115E-16    2.280214E-17    7.886500E-19   -5.595929E-20   -8.687677E-21
        -5.973490E-22   -2.764620E-23   -9.375726E-25   -2.390032E-26   -4.609497E-28   -6.712047E-30   -7.325700E-32   -5.938853E-34   -3.580215E-36   -1.695949E-38
        -7.847394E-41
   4    -3.480092E-38   -4.635448E-36   -6.077548E-34   -6.886005E-32   -6.313594E-30   -4.555151E-28   -2.556644E-26   -1.108218E-24   -3.661729E-23   -8.843619E-22
        -1.305864E-20    2.721164E-20    8.018577E-18    2.441531E-16    3.773599E-15    2.439321E-14    3.773602E-15    2.441543E-16    8.018968E-18    2.732184E-20
        -1.303892E-20   -8.822506E-22   -3.647419E-23   -1.101667E-24   -2.535381E-26   -4.504479E-28   -6.222537E-30   -6.759410E-32   -5.936306E-34   -4.500319E-36
        -3.355216E-38
   5    -7.897904E-36   -7.807677E-34   -7.453640E-32   -6.313594E-30   -4.499247E-28   -2.609879E-26   -1.205677E-24   -4.329323E-23   -1.133077E-21   -1.550313E-20
         3.618739E-19    3.337044E-17    1.294415E-15    3.085187E-14    4.304386E-13    2.625442E-12    4.304386E-13    3.085189E-14    1.294421E-15    3.337200E-17
         3.622639E-19   -1.545079E-20   -1.128827E-21   -4.306414E-23   -1.196934E-24   -2.585148E-26   -4.445488E-28   -6.220673E-30   -7.320717E-32   -7.641620E-34
        -7.701701E-36
   6    -1.145579E-33   -9.054948E-32   -6.799322E-30   -4.555151E-28   -2.609879E-26   -1.237005E-24   -4.680750E-23   -1.296699E-21   -1.537882E-20    9.892425E-19
         8.772638E-17    4.249090E-15    1.386611E-13    3.016180E-12    3.949995E-11    2.291615E-10    3.949995E-11    3.016180E-12    1.386611E-13    4.249107E-15
         8.773116E-17    9.902076E-19   -1.527949E-20   -1.290253E-21   -4.651607E-23   -1.227247E-24   -2.584563E-26   -4.502231E-28   -6.706567E-30   -8.912429E-32
        -1.125167E-33
   7    -1.145760E-31   -7.539287E-30   -4.653097E-28   -2.556644E-26   -1.205677E-24   -4.680750E-23   -1.352929E-21   -1.428995E-20    1.662789E-18    1.612337E-16
         9.471134E-15    3.942800E-13    1.168305E-11    2.355378E-10    2.900143E-09    1.594717E-08    2.900143E-09    2.355378E-10    1.168305E-11    3.942801E-13
         9.471174E-15    1.612442E-16    1.664460E-18   -1.415182E-20   -1.345392E-21   -4.650794E-23   -1.196480E-24   -2.533837E-26   -4.605538E-28   -7.452525E-30
        -1.131156E-31
   8    -8.222804E-30   -4.617368E-28   -2.405757E-26   -1.108218E-24   -4.329323E-23   -1.296699E-21   -1.428995E-20    1.958875E-18    2.165402E-16    1.505416E-14
         7.639027E-13    2.861281E-11    7.731616E-10    1.436262E-08    1.648878E-07    8.522867E-07    1.648878E-07    1.436262E-08    7.731616E-10    2.861281E-11
         7.639028E-13    1.505424E-14    2.165560E-16    1.960927E-18   -1.414717E-20   -1.289854E-21   -4.304447E-23   -1.100972E-24   -2.388085E-26   -4.579881E-28
        -8.150046E-30
   9    -4.321840E-28   -2.105901E-26   -9.415681E-25   -3.661729E-23   -1.133077E-21   -1.537882E-20    1.662789E-18    2.165402E-16    1.752042E-14    1.052629E-12
         4.768046E-11    1.603815E-09    3.903152E-08    6.575780E-07    6.936816E-06    3.330568E-05    6.936816E-06    6.575780E-07    3.903152E-08    1.603815E-09
         4.768046E-11    1.052629E-12    1.752052E-14    2.165567E-16    1.664585E-18   -1.526924E-20   -1.128289E-21   -3.645331E-23   -9.369237E-25   -2.094569E-26
        -4.296761E-28
  10    -1.676583E-26   -7.175015E-25   -2.771506E-23   -8.843619E-22   -1.550313E-20    9.892425E-19    1.612337E-16    1.505416E-14    1.052629E-12    5.629142E-11
         2.268545E-09    6.744204E-08    1.444317E-06    2.151358E-05    2.039765E-04    8.944920E-04    2.039765E-04    2.151358E-05    1.444317E-06    6.744204E-08
         2.268545E-09    5.629142E-11    1.052629E-12    1.505424E-14    1.612454E-16    9.903530E-19   -1.544171E-20   -8.818467E-22   -2.763201E-23   -7.151767E-25
        -1.670746E-26
  11    -4.793932E-25   -1.816352E-23   -5.981131E-22   -1.305864E-20    3.618739E-19    8.772638E-17    9.471134E-15    7.639027E-13    4.768046E-11    2.268545E-09
         8.024436E-08    2.056877E-06    3.745202E-05    4.745141E-04    3.908995E-03    1.527238E-02    3.908995E-03    4.745141E-04    3.745202E-05    2.056877E-06
         8.024436E-08    2.268545E-09    4.768046E-11    7.639028E-13    9.471178E-15    8.773206E-17    3.623494E-19   -1.303424E-20   -5.971578E-22   -1.813265E-23
        -4.785129E-25
  12    -1.003034E-23   -3.363275E-22   -8.692882E-21    2.721164E-20    3.337044E-17    4.249090E-15    3.942800E-13    2.861281E-11    1.603815E-09    6.744204E-08
         2.056877E-06    4.410684E-05    6.518135E-04    6.632596E-03    4.506874E-02    0.151097        4.506874E-02    6.632596E-03    6.518135E-04    4.410684E-05
         2.056877E-06    6.744204E-08    1.603815E-09    2.861281E-11    3.942801E-13    4.249110E-15    3.337237E-17    2.735082E-20   -8.686230E-21   -3.360767E-22
        -1.002219E-23
  13    -1.522295E-22   -4.398873E-21   -5.598194E-20    8.018577E-18    1.294415E-15    1.386611E-13    1.168305E-11    7.731616E-10    3.903152E-08    1.444317E-06
         3.745202E-05    6.518135E-04    7.424287E-03    5.614988E-02    0.291885        0.795781        0.291885        5.614988E-02    7.424287E-03    6.518135E-04
         3.745202E-05    1.444317E-06    3.903152E-08    7.731616E-10    1.168305E-11    1.386612E-13    1.294422E-15    8.019057E-18   -5.595358E-20   -4.397638E-21
        -1.521842E-22
  14    -1.646910E-21   -3.678331E-20    7.885777E-19    2.441531E-16    3.085187E-14    3.016180E-12    2.355378E-10    1.436262E-08    6.575780E-07    2.151358E-05
         4.745141E-04    6.632596E-03    5.614988E-02    0.293998         1.06575         2.21193         1.06575        0.293998        5.614988E-02    6.632596E-03
         4.745141E-04    2.151358E-05    6.575780E-07    1.436262E-08    2.355378E-10    3.016180E-12    3.085190E-14    2.441545E-16    7.886634E-19   -3.677928E-20
        -1.646751E-21
  15    -1.162428E-20   -1.291118E-19    2.280202E-17    3.773599E-15    4.304386E-13    3.949995E-11    2.900143E-09    1.648878E-07    6.936816E-06    2.039765E-04
         3.908995E-03    4.506874E-02    0.291885         1.06575         2.72336         3.67574         2.72336         1.06575        0.291885        4.506874E-02
         3.908995E-03    2.039765E-04    6.936816E-06    1.648878E-07    2.900143E-09    3.949995E-11    4.304386E-13    3.773602E-15    2.280216E-17   -1.291049E-19
        -1.162400E-20
  16    -4.932713E-20    9.839041E-20    1.728115E-16    2.439321E-14    2.625442E-12    2.291615E-10    1.594717E-08    8.522867E-07    3.330568E-05    8.944920E-04
         1.527238E-02    0.151097        0.795781         2.21193         3.67574         4.71443         3.67574         2.21193        0.795781        0.151097    
         1.527238E-02    8.944920E-04    3.330568E-05    8.522867E-07    1.594717E-08    2.291615E-10    2.625442E-12    2.439321E-14    1.728115E-16    9.839039E-20
        -4.932713E-20
  17    -1.162403E-20   -1.291057E-19    2.280214E-17    3.773602E-15    4.304386E-13    3.949995E-11    2.900143E-09    1.648878E-07    6.936816E-06    2.039765E-04
         3.908995E-03    4.506874E-02    0.291885         1.06575         2.72336         3.67574         2.72336         1.06575        0.291885        4.506874E-02
         3.908995E-03    2.039765E-04    6.936816E-06    1.648878E-07    2.900143E-09    3.949995E-11    4.304386E-13    3.773599E-15    2.280202E-17   -1.291118E-19
        -1.162428E-20
  18    -1.646777E-21   -3.677994E-20    7.886500E-19    2.441543E-16    3.085189E-14    3.016180E-12    2.355378E-10    1.436262E-08    6.575780E-07    2.151358E-05
         4.745141E-04    6.632596E-03    5.614988E-02    0.293998         1.06575         2.21193         1.06575        0.293998        5.614988E-02    6.632596E-03
         4.745141E-04    2.151358E-05    6.575780E-07    1.436262E-08    2.355378E-10    3.016180E-12    3.085187E-14    2.441531E-16    7.885777E-19   -3.678331E-20
        -1.646910E-21
  19    -1.521939E-22   -4.397896E-21   -5.595929E-20    8.018968E-18    1.294421E-15    1.386611E-13    1.168305E-11    7.731616E-10    3.903152E-08    1.444317E-06
         3.745202E-05    6.518135E-04    7.424287E-03    5.614988E-02    0.291885        0.795781        0.291885        5.614988E-02    7.424287E-03    6.518135E-04
         3.745202E-05    1.444317E-06    3.903152E-08    7.731616E-10    1.168305E-11    1.386611E-13    1.294415E-15    8.018577E-18   -5.598194E-20   -4.398873E-21
        -1.522295E-22
  20    -1.002405E-23   -3.361327E-22   -8.687677E-21    2.732184E-20    3.337200E-17    4.249107E-15    3.942801E-13    2.861281E-11    1.603815E-09    6.744204E-08
         2.056877E-06    4.410684E-05    6.518135E-04    6.632596E-03    4.506874E-02    0.151097        4.506874E-02    6.632596E-03    6.518135E-04    4.410684E-05
         2.056877E-06    6.744204E-08    1.603815E-09    2.861281E-11    3.942800E-13    4.249090E-15    3.337044E-17    2.721165E-20   -8.692882E-21   -3.363275E-22
        -1.003034E-23
  21    -4.787001E-25   -1.813904E-23   -5.973490E-22   -1.303892E-20    3.622639E-19    8.773116E-17    9.471174E-15    7.639028E-13    4.768046E-11    2.268545E-09
         8.024436E-08    2.056877E-06    3.745202E-05    4.745141E-04    3.908995E-03    1.527238E-02    3.908995E-03    4.745141E-04    3.745202E-05    2.056877E-06
         8.024436E-08    2.268545E-09    4.768046E-11    7.639027E-13    9.471134E-15    8.772638E-17    3.618739E-19   -1.305864E-20   -5.981131E-22   -1.816352E-23
        -4.793932E-25
  22    -1.671838E-26   -7.155940E-25   -2.764620E-23   -8.822506E-22   -1.545079E-20    9.902076E-19    1.612442E-16    1.505424E-14    1.052629E-12    5.629142E-11
         2.268545E-09    6.744204E-08    1.444317E-06    2.151358E-05    2.039765E-04    8.944920E-04    2.039765E-04    2.151358E-05    1.444317E-06    6.744204E-08
         2.268545E-09    5.629142E-11    1.052629E-12    1.505416E-14    1.612337E-16    9.892425E-19   -1.550313E-20   -8.843619E-22   -2.771506E-23   -7.175015E-25
        -1.676583E-26
  23    -4.300763E-28   -2.096271E-26   -9.375726E-25   -3.647419E-23   -1.128827E-21   -1.527949E-20    1.664460E-18    2.165560E-16    1.752052E-14    1.052629E-12
         4.768046E-11    1.603815E-09    3.903152E-08    6.575780E-07    6.936816E-06    3.330568E-05    6.936816E-06    6.575780E-07    3.903152E-08    1.603815E-09
         4.768046E-11    1.052629E-12    1.752042E-14    2.165402E-16    1.662789E-18   -1.537882E-20   -1.133077E-21   -3.661729E-23   -9.415681E-25   -2.105901E-26
        -4.321840E-28
  24    -8.159732E-30   -4.584467E-28   -2.390032E-26   -1.101667E-24   -4.306414E-23   -1.290253E-21   -1.415182E-20    1.960927E-18    2.165567E-16    1.505424E-14
         7.639028E-13    2.861281E-11    7.731616E-10    1.436262E-08    1.648878E-07    8.522867E-07    1.648878E-07    1.436262E-08    7.731616E-10    2.861281E-11
         7.639027E-13    1.505416E-14    2.165402E-16    1.958875E-18   -1.428995E-20   -1.296699E-21   -4.329323E-23   -1.108218E-24   -2.405757E-26   -4.617368E-28
        -8.222804E-30
  25    -1.132746E-31   -7.460917E-30   -4.609497E-28   -2.535381E-26   -1.196934E-24   -4.651607E-23   -1.345392E-21   -1.414717E-20    1.664585E-18    1.612454E-16
         9.471178E-15    3.942801E-13    1.168305E-11    2.355378E-10    2.900143E-09    1.594717E-08    2.900143E-09    2.355378E-10    1.168305E-11    3.942800E-13
         9.471134E-15    1.612337E-16    1.662789E-18   -1.428995E-20   -1.352929E-21   -4.680750E-23   -1.205677E-24   -2.556644E-26   -4.653097E-28   -7.539287E-30
        -1.145760E-31
  26    -1.126945E-33   -8.922932E-32   -6.712047E-30   -4.504479E-28   -2.585148E-26   -1.227247E-24   -4.650794E-23   -1.289854E-21   -1.526924E-20    9.903530E-19
         8.773206E-17    4.249110E-15    1.386612E-13    3.016180E-12    3.949995E-11    2.291615E-10    3.949995E-11    3.016180E-12    1.386611E-13    4.249090E-15
         8.772638E-17    9.892425E-19   -1.537882E-20   -1.296699E-21   -4.680750E-23   -1.237005E-24   -2.609879E-26   -4.555151E-28   -6.799322E-30   -9.054948E-32
        -1.145579E-33
  27    -7.715006E-36   -7.650440E-34   -7.325700E-32   -6.222537E-30   -4.445488E-28   -2.584563E-26   -1.196480E-24   -4.304447E-23   -1.128289E-21   -1.544171E-20
         3.623494E-19    3.337237E-17    1.294422E-15    3.085190E-14    4.304386E-13    2.625442E-12    4.304386E-13    3.085187E-14    1.294415E-15    3.337044E-17
         3.618739E-19   -1.550313E-20   -1.133077E-21   -4.329323E-23   -1.205677E-24   -2.609879E-26   -4.499247E-28   -6.313594E-30   -7.453640E-32   -7.807677E-34
        -7.897904E-36
  28    -3.361566E-38   -4.504999E-36   -5.938853E-34   -6.759410E-32   -6.220673E-30   -4.502231E-28   -2.533837E-26   -1.100972E-24   -3.645331E-23   -8.818467E-22
        -1.303424E-20    2.735082E-20    8.019057E-18    2.441545E-16    3.773602E-15    2.439321E-14    3.773599E-15    2.441531E-16    8.018577E-18    2.721165E-20
        -1.305864E-20   -8.843619E-22   -3.661729E-23   -1.108218E-24   -2.556644E-26   -4.555151E-28   -6.313594E-30   -6.886005E-32   -6.077548E-34   -4.635448E-36
        -3.480092E-38
  29    -7.864790E-41   -1.697257E-38   -3.580215E-36   -5.936306E-34   -7.320717E-32   -6.706567E-30   -4.605538E-28   -2.388085E-26   -9.369237E-25   -2.763201E-23
        -5.971578E-22   -8.686230E-21   -5.595358E-20    7.886634E-19    2.280216E-17    1.728115E-16    2.280202E-17    7.885777E-19   -5.598194E-20   -8.692882E-21
        -5.981131E-22   -2.771506E-23   -9.415681E-25   -2.405757E-26   -4.653097E-28   -6.799322E-30   -7.453640E-32   -6.077548E-34   -3.693513E-36   -1.770584E-38
        -8.332282E-41
  30    -5.603303E-44   -3.720549E-41   -1.695949E-38   -4.500319E-36   -7.641620E-34   -8.912429E-32   -7.452525E-30   -4.579881E-28   -2.094569E-26   -7.151767E-25
        -1.813265E-23   -3.360767E-22   -4.397638E-21   -3.677928E-20   -1.291049E-19    9.839039E-20   -1.291118E-19   -3.678331E-20   -4.398873E-21   -3.363275E-22
        -1.816352E-23   -7.175015E-25   -2.105901E-26   -4.617368E-28   -7.539287E-30   -9.054948E-32   -7.807677E-34   -4.635448E-36   -1.770584E-38   -3.997368E-41
        -6.529641E-44
  31      0.00000       -5.582849E-44   -7.847394E-41   -3.355216E-38   -7.701701E-36   -1.125167E-33   -1.131156E-31   -8.150046E-30   -4.296761E-28   -1.670746E-26
        -4.785129E-25   -1.002219E-23   -1.521842E-22   -1.646751E-21   -1.162400E-20   -4.932713E-20   -1.162428E-20   -1.646910E-21   -1.522295E-22   -1.003034E-23
        -4.793932E-25   -1.676583E-26   -4.321840E-28   -8.222804E-30   -1.145760E-31   -1.145579E-33   -7.897904E-36   -3.480092E-38   -8.332282E-41   -6.529641E-44
          0.00000    

 CONCENTRATION WILL BE SAVED ON UNIT 1030 AT END OF TIME STEP   94, STRESS PERIOD    2


  MASS BUDGET FOR ENTIRE MODEL AT END OF TIME STEP   94, STRESS PERIOD   2
  ---------------------------------------------------------------------------------------------------

     CUMULATIVE MASS      M       RATES FOR THIS TIME STEP      M/T          PACKAGE NAME    
     ------------------                 ------------------------                     ----------------

           IN:                                      IN:
           ---                                      ---
     STORAGE-AQUEOUS =  7571295094.0949       STORAGE-AQUEOUS =      407329.6453     MST                              
                 WEL =  7884000000.0000                   WEL =           0.0000     SSM_WEL-1                        
                 CHD =           0.0000                   CHD =           0.0000     SSM_CHD-1                        

            TOTAL IN = 15455295094.0949              TOTAL IN =      407329.6453

          OUT:                                     OUT:
          ----                                     ----
     STORAGE-AQUEOUS =  7888719038.1028       STORAGE-AQUEOUS =           2.6859     MST                              
                 WEL =  7566576055.9924                   WEL =      407326.9594     SSM_WEL-1                        
                 CHD =       7.5562E-18                   CHD =           0.0000     SSM_CHD-1                        

           TOTAL OUT = 15455295094.0951             TOTAL OUT =      407329.6453

            IN - OUT =      -1.8883E-04              IN - OUT =      -1.0984E-07

 PERCENT DISCREPANCY =          -0.00     PERCENT DISCREPANCY =          -0.00




         TIME SUMMARY AT END OF TIME STEP   94 IN STRESS PERIOD    2
                    SECONDS     MINUTES      HOURS       DAYS        YEARS
                    -----------------------------------------------------------
   TIME STEP LENGTH 2.16991E+06  36165.      602.75      25.115     6.87602E-02
 STRESS PERIOD TIME 2.03971E+08 3.39952E+06  56659.      2360.8      6.4635    
         TOTAL TIME 2.82811E+08 4.71352E+06  78559.      3273.3      8.9618    


end timestep


start timestep kper="2" kstp="95" mode="normal"

 UBDSV1 SAVING  STORAGE-AQUEOUS ON UNIT   1029 AT TIME STEP     95, STRESS PERIOD      2
 UBDSV1 SAVING     FLOW-JA-FACE ON UNIT   1029 AT TIME STEP     95, STRESS PERIOD      2
 UBDSV06 SAVING  SOURCE-SINK MIX IN MODEL GWT_P06-MF6      PACKAGE GWT_P06-MF6     CONNECTED TO MODEL GWT_P06-MF6      PACKAGE SSM              ON UNIT   1029 AT TIME STEP     95, STRESS PERIOD      2
1
  CONCENTRATION IN LAYER   1 AT END OF TIME STEP  95 IN STRESS PERIOD    2
  ---------------------------------------------------------------------------

                1               2               3               4               5               6               7               8               9              10
               11              12              13              14              15              16              17              18              19              20
               21              22              23              24              25              26              27              28              29              30
               31
 ................................................................................................................................................................................................................................................................................................................................................................................................................................................................................................................
   1      0.00000       -7.404267E-44   -8.983762E-41   -3.697816E-38   -8.322793E-36   -1.199796E-33   -1.193716E-31   -8.526239E-30   -4.461303E-28   -1.723348E-26
        -4.907833E-25   -1.022894E-23   -1.546001E-22   -1.663101E-21   -1.163881E-20   -4.886839E-20   -1.163856E-20   -1.662967E-21   -1.545642E-22   -1.022256E-23
        -4.900790E-25   -1.718508E-26   -4.439726E-28   -8.461419E-30   -1.180289E-31   -1.180492E-33   -8.132543E-36   -3.574005E-38   -8.493223E-41   -6.427255E-44
          0.00000    
   2    -7.404267E-44   -4.328519E-41   -1.883208E-38   -4.884655E-36   -8.175167E-34   -9.432243E-32   -7.817327E-30   -4.767051E-28   -2.165169E-26   -7.346733E-25
        -1.851728E-23   -3.409659E-22   -4.415628E-21   -3.602841E-20   -1.131512E-19    2.091100E-19   -1.131451E-19   -3.602501E-20   -4.414644E-21   -3.407691E-22
        -1.849248E-23   -7.327340E-25   -2.155344E-26   -4.733353E-28   -7.736761E-30   -9.296024E-32   -8.012323E-34   -4.749044E-36   -1.806675E-38   -4.038259E-41
        -6.405553E-44
   3    -8.983762E-41   -1.883208E-38   -3.892125E-36   -6.362345E-34   -7.762379E-32   -7.048946E-30   -4.803761E-28   -2.473646E-26   -9.641630E-25   -2.824399E-23
        -6.049229E-22   -8.628518E-21   -4.989788E-20    9.498247E-19    2.506785E-17    1.864314E-16    2.506797E-17    9.498969E-19   -4.987513E-20   -8.623277E-21
        -6.041512E-22   -2.817421E-23   -9.600990E-25   -2.457594E-26   -4.759093E-28   -6.959215E-30   -7.630379E-32   -6.218740E-34   -3.774373E-36   -1.805303E-38
        -8.474876E-41
   4    -3.697816E-38   -4.884655E-36   -6.362345E-34   -7.170418E-32   -6.544398E-30   -4.702103E-28   -2.628650E-26   -1.134731E-24   -3.729602E-23   -8.916688E-22
        -1.270229E-20    5.285700E-20    8.894924E-18    2.636315E-16    4.027295E-15    2.583384E-14    4.027298E-15    2.636328E-16    8.895315E-18    5.296747E-20
        -1.268244E-20   -8.895363E-22   -3.715094E-23   -1.128065E-24   -2.606939E-26   -4.650182E-28   -6.450778E-30   -7.039810E-32   -6.216094E-34   -4.744161E-36
        -3.567345E-38
   5    -8.322793E-36   -8.175167E-34   -7.762379E-32   -6.544398E-30   -4.644128E-28   -2.683207E-26   -1.234384E-24   -4.407132E-23   -1.138602E-21   -1.456560E-20
         4.333668E-19    3.644122E-17    1.388893E-15    3.278108E-14    4.539056E-13    2.750653E-12    4.539056E-13    3.278110E-14    1.388899E-15    3.644278E-17
         4.337573E-19   -1.451294E-20   -1.134309E-21   -4.383902E-23   -1.225487E-24   -2.657951E-26   -4.589041E-28   -6.448857E-30   -7.625225E-32   -8.003162E-34
        -8.118658E-36
   6    -1.199796E-33   -9.432243E-32   -7.048946E-30   -4.702103E-28   -2.683207E-26   -1.266395E-24   -4.763197E-23   -1.299511E-21   -1.371233E-20    1.132177E-18
         9.518114E-17    4.543633E-15    1.468860E-13    3.170419E-12    4.123802E-11    2.377661E-10    4.123802E-11    3.170420E-12    1.468861E-13    4.543650E-15
         9.518588E-17    1.133143E-18   -1.361241E-20   -1.292999E-21   -4.733643E-23   -1.256464E-24   -2.657353E-26   -4.647875E-28   -6.953571E-30   -9.285164E-32
        -1.178645E-33
   7    -1.193716E-31   -7.817327E-30   -4.803761E-28   -2.628650E-26   -1.234384E-24   -4.763197E-23   -1.354449E-21   -1.210452E-20    1.868813E-18    1.743771E-16
         1.010582E-14    4.167267E-13    1.224770E-11    2.451174E-10    2.998145E-09    1.638593E-08    2.998145E-09    2.451174E-10    1.224770E-11    4.167268E-13
         1.010586E-14    1.743875E-16    1.870478E-18   -1.196557E-20   -1.346834E-21   -4.732817E-23   -1.225025E-24   -2.605361E-26   -4.755032E-28   -7.728121E-30
        -1.178645E-31
   8    -8.526239E-30   -4.767051E-28   -2.473646E-26   -1.134731E-24   -4.407132E-23   -1.299511E-21   -1.210452E-20    2.187509E-18    2.338837E-16    1.604310E-14
         8.061385E-13    2.993295E-11    8.023913E-10    1.479734E-08    1.687671E-07    8.671294E-07    1.687671E-07    1.479734E-08    8.023913E-10    2.993295E-11
         8.061386E-13    1.604317E-14    2.338994E-16    2.189548E-18   -1.196090E-20   -1.292595E-21   -4.381908E-23   -1.127357E-24   -2.455605E-26   -4.728652E-28
        -8.451451E-30
   9    -4.461303E-28   -2.165169E-26   -9.641630E-25   -3.729602E-23   -1.138602E-21   -1.371233E-20    1.868813E-18    2.338837E-16    1.866380E-14    1.109940E-12
         4.981274E-11    1.660983E-09    4.009606E-08    6.705766E-07    7.028208E-06    3.354809E-05    7.028208E-06    6.705766E-07    4.009606E-08    1.660983E-09
         4.981274E-11    1.109940E-12    1.866389E-14    2.339000E-16    1.870603E-18   -1.360210E-20   -1.133766E-21   -3.712978E-23   -9.594387E-25   -2.153605E-26
        -4.435627E-28
  10    -1.723348E-26   -7.346733E-25   -2.824399E-23   -8.916688E-22   -1.456560E-20    1.132177E-18    1.743771E-16    1.604310E-14    1.109940E-12    5.878123E-11
         2.346746E-09    6.914214E-08    1.468431E-06    2.171167E-05    2.045505E-04    8.920045E-04    2.045505E-04    2.171167E-05    1.468431E-06    6.914214E-08
         2.346746E-09    5.878123E-11    1.109940E-12    1.604318E-14    1.743887E-16    1.133288E-18   -1.450381E-20   -8.891285E-22   -2.815982E-23   -7.323097E-25
        -1.717393E-26
  11    -4.907833E-25   -1.851728E-23   -6.049229E-22   -1.270229E-20    4.333668E-19    9.518114E-17    1.010582E-14    8.061385E-13    4.981274E-11    2.346746E-09
         8.220785E-08    2.087557E-06    3.768440E-05    4.739202E-04    3.880282E-03    1.508170E-02    3.880282E-03    4.739202E-04    3.768440E-05    2.087557E-06
         8.220785E-08    2.346746E-09    4.981274E-11    8.061386E-13    1.010587E-14    9.518677E-17    4.338429E-19   -1.267774E-20   -6.039581E-22   -1.848601E-23
        -4.898888E-25
  12    -1.022894E-23   -3.409659E-22   -8.628518E-21    5.285700E-20    3.644122E-17    4.543633E-15    4.167267E-13    2.993295E-11    1.660983E-09    6.914214E-08
         2.087557E-06    4.432995E-05    6.492915E-04    6.558111E-03    4.431087E-02    0.147891        4.431087E-02    6.558111E-03    6.492915E-04    4.432995E-05
         2.087557E-06    6.914214E-08    1.660983E-09    2.993295E-11    4.167268E-13    4.543653E-15    3.644314E-17    5.299650E-20   -8.621822E-21   -3.407125E-22
        -1.022068E-23
  13    -1.546001E-22   -4.415628E-21   -4.989788E-20    8.894924E-18    1.388893E-15    1.468860E-13    1.224770E-11    8.023913E-10    4.009606E-08    1.468431E-06
         3.768440E-05    6.492915E-04    7.328603E-03    5.502866E-02    0.284682        0.773581        0.284682        5.502866E-02    7.328603E-03    6.492915E-04
         3.768440E-05    1.468431E-06    4.009606E-08    8.023913E-10    1.224770E-11    1.468861E-13    1.388900E-15    8.895403E-18   -4.986941E-20   -4.414384E-21
        -1.545543E-22
  14    -1.663101E-21   -3.602841E-20    9.498247E-19    2.636315E-16    3.278108E-14    3.170419E-12    2.451174E-10    1.479734E-08    6.705766E-07    2.171167E-05
         4.739202E-04    6.558111E-03    5.502866E-02    0.286238         1.03385         2.14184         1.03385        0.286238        5.502866E-02    6.558111E-03
         4.739202E-04    2.171167E-05    6.705766E-07    1.479734E-08    2.451174E-10    3.170420E-12    3.278110E-14    2.636330E-16    9.499102E-19   -3.602435E-20
        -1.662941E-21
  15    -1.163881E-20   -1.131512E-19    2.506785E-17    4.027295E-15    4.539056E-13    4.123802E-11    2.998145E-09    1.687671E-07    7.028208E-06    2.045505E-04
         3.880282E-03    4.431087E-02    0.284682         1.03385         2.63478         3.55393         2.63478         1.03385        0.284682        4.431087E-02
         3.880282E-03    2.045505E-04    7.028208E-06    1.687671E-07    2.998145E-09    4.123802E-11    4.539056E-13    4.027298E-15    2.506799E-17   -1.131444E-19
        -1.163853E-20
  16    -4.886839E-20    2.091100E-19    1.864314E-16    2.583384E-14    2.750653E-12    2.377661E-10    1.638593E-08    8.671294E-07    3.354809E-05    8.920045E-04
         1.508170E-02    0.147891        0.773581         2.14184         3.55393         4.55540         3.55393         2.14184        0.773581        0.147891    
         1.508170E-02    8.920045E-04    3.354809E-05    8.671294E-07    1.638593E-08    2.377661E-10    2.750653E-12    2.583384E-14    1.864314E-16    2.091100E-19
        -4.886839E-20
  17    -1.163856E-20   -1.131451E-19    2.506797E-17    4.027298E-15    4.539056E-13    4.123802E-11    2.998145E-09    1.687671E-07    7.028208E-06    2.045505E-04
         3.880282E-03    4.431087E-02    0.284682         1.03385         2.63478         3.55393         2.63478         1.03385        0.284682        4.431087E-02
         3.880282E-03    2.045505E-04    7.028208E-06    1.687671E-07    2.998145E-09    4.123802E-11    4.539056E-13    4.027295E-15    2.506785E-17   -1.131512E-19
        -1.163881E-20
  18    -1.662967E-21   -3.602501E-20    9.498969E-19    2.636328E-16    3.278110E-14    3.170420E-12    2.451174E-10    1.479734E-08    6.705766E-07    2.171167E-05
         4.739202E-04    6.558111E-03    5.502866E-02    0.286238         1.03385         2.14184         1.03385        0.286238        5.502866E-02    6.558111E-03
         4.739202E-04    2.171167E-05    6.705766E-07    1.479734E-08    2.451174E-10    3.170419E-12    3.278108E-14    2.636315E-16    9.498247E-19   -3.602841E-20
        -1.663101E-21
  19    -1.545642E-22   -4.414644E-21   -4.987513E-20    8.895315E-18    1.388899E-15    1.468861E-13    1.224770E-11    8.023913E-10    4.009606E-08    1.468431E-06
         3.768440E-05    6.492915E-04    7.328603E-03    5.502866E-02    0.284682        0.773581        0.284682        5.502866E-02    7.328603E-03    6.492915E-04
         3.768440E-05    1.468431E-06    4.009606E-08    8.023913E-10    1.224770E-11    1.468860E-13    1.388893E-15    8.894924E-18   -4.989788E-20   -4.415628E-21
        -1.546001E-22
  20    -1.022256E-23   -3.407691E-22   -8.623277E-21    5.296747E-20    3.644278E-17    4.543650E-15    4.167268E-13    2.993295E-11    1.660983E-09    6.914214E-08
         2.087557E-06    4.432995E-05    6.492915E-04    6.558111E-03    4.431087E-02    0.147891        4.431087E-02    6.558111E-03    6.492915E-04    4.432995E-05
         2.087557E-06    6.914214E-08    1.660983E-09    2.993295E-11    4.167267E-13    4.543633E-15    3.644122E-17    5.285700E-20   -8.628518E-21   -3.409659E-22
        -1.022894E-23
  21    -4.900790E-25   -1.849248E-23   -6.041512E-22   -1.268244E-20    4.337573E-19    9.518588E-17    1.010586E-14    8.061386E-13    4.981274E-11    2.346746E-09
         8.220785E-08    2.087557E-06    3.768440E-05    4.739202E-04    3.880282E-03    1.508170E-02    3.880282E-03    4.739202E-04    3.768440E-05    2.087557E-06
         8.220785E-08    2.346746E-09    4.981274E-11    8.061385E-13    1.010582E-14    9.518114E-17    4.333668E-19   -1.270229E-20   -6.049229E-22   -1.851728E-23
        -4.907833E-25
  22    -1.718508E-26   -7.327340E-25   -2.817421E-23   -8.895363E-22   -1.451294E-20    1.133143E-18    1.743875E-16    1.604317E-14    1.109940E-12    5.878123E-11
         2.346746E-09    6.914214E-08    1.468431E-06    2.171167E-05    2.045505E-04    8.920045E-04    2.045505E-04    2.171167E-05    1.468431E-06    6.914214E-08
         2.346746E-09    5.878123E-11    1.109940E-12    1.604310E-14    1.743771E-16    1.132177E-18   -1.456560E-20   -8.916688E-22   -2.824399E-23   -7.346733E-25
        -1.723348E-26
  23    -4.439726E-28   -2.155344E-26   -9.600990E-25   -3.715094E-23   -1.134309E-21   -1.361241E-20    1.870478E-18    2.338994E-16    1.866389E-14    1.109940E-12
         4.981274E-11    1.660983E-09    4.009606E-08    6.705766E-07    7.028208E-06    3.354809E-05    7.028208E-06    6.705766E-07    4.009606E-08    1.660983E-09
         4.981274E-11    1.109940E-12    1.866380E-14    2.338837E-16    1.868813E-18   -1.371233E-20   -1.138602E-21   -3.729602E-23   -9.641630E-25   -2.165169E-26
        -4.461303E-28
  24    -8.461419E-30   -4.733353E-28   -2.457594E-26   -1.128065E-24   -4.383902E-23   -1.292999E-21   -1.196557E-20    2.189549E-18    2.339000E-16    1.604318E-14
         8.061386E-13    2.993295E-11    8.023913E-10    1.479734E-08    1.687671E-07    8.671294E-07    1.687671E-07    1.479734E-08    8.023913E-10    2.993295E-11
         8.061385E-13    1.604310E-14    2.338837E-16    2.187509E-18   -1.210452E-20   -1.299511E-21   -4.407132E-23   -1.134731E-24   -2.473646E-26   -4.767051E-28
        -8.526239E-30
  25    -1.180289E-31   -7.736761E-30   -4.759093E-28   -2.606939E-26   -1.225487E-24   -4.733643E-23   -1.346834E-21   -1.196090E-20    1.870603E-18    1.743887E-16
         1.010587E-14    4.167268E-13    1.224770E-11    2.451174E-10    2.998145E-09    1.638593E-08    2.998145E-09    2.451174E-10    1.224770E-11    4.167267E-13
         1.010582E-14    1.743771E-16    1.868813E-18   -1.210452E-20   -1.354449E-21   -4.763197E-23   -1.234384E-24   -2.628650E-26   -4.803761E-28   -7.817327E-30
        -1.193716E-31
  26    -1.180492E-33   -9.296024E-32   -6.959215E-30   -4.650182E-28   -2.657951E-26   -1.256464E-24   -4.732817E-23   -1.292595E-21   -1.360210E-20    1.133288E-18
         9.518677E-17    4.543653E-15    1.468861E-13    3.170420E-12    4.123802E-11    2.377661E-10    4.123802E-11    3.170419E-12    1.468860E-13    4.543633E-15
         9.518114E-17    1.132177E-18   -1.371233E-20   -1.299511E-21   -4.763197E-23   -1.266395E-24   -2.683207E-26   -4.702103E-28   -7.048946E-30   -9.432243E-32
        -1.199796E-33
  27    -8.132543E-36   -8.012323E-34   -7.630379E-32   -6.450778E-30   -4.589041E-28   -2.657353E-26   -1.225025E-24   -4.381908E-23   -1.133766E-21   -1.450381E-20
         4.338429E-19    3.644314E-17    1.388900E-15    3.278110E-14    4.539056E-13    2.750653E-12    4.539056E-13    3.278108E-14    1.388893E-15    3.644122E-17
         4.333668E-19   -1.456560E-20   -1.138602E-21   -4.407132E-23   -1.234384E-24   -2.683207E-26   -4.644128E-28   -6.544398E-30   -7.762379E-32   -8.175167E-34
        -8.322793E-36
  28    -3.574005E-38   -4.749044E-36   -6.218740E-34   -7.039810E-32   -6.448857E-30   -4.647875E-28   -2.605361E-26   -1.127357E-24   -3.712978E-23   -8.891285E-22
        -1.267774E-20    5.299650E-20    8.895403E-18    2.636330E-16    4.027298E-15    2.583384E-14    4.027295E-15    2.636315E-16    8.894924E-18    5.285700E-20
        -1.270229E-20   -8.916688E-22   -3.729602E-23   -1.134731E-24   -2.628650E-26   -4.702103E-28   -6.544398E-30   -7.170418E-32   -6.362345E-34   -4.884655E-36
        -3.697816E-38
  29    -8.493223E-41   -1.806675E-38   -3.774373E-36   -6.216094E-34   -7.625225E-32   -6.953571E-30   -4.755032E-28   -2.455605E-26   -9.594387E-25   -2.815982E-23
        -6.039581E-22   -8.621822E-21   -4.986941E-20    9.499102E-19    2.506799E-17    1.864314E-16    2.506785E-17    9.498247E-19   -4.989788E-20   -8.628518E-21
        -6.049229E-22   -2.824399E-23   -9.641630E-25   -2.473646E-26   -4.803761E-28   -7.048946E-30   -7.762379E-32   -6.362345E-34   -3.892125E-36   -1.883208E-38
        -8.983762E-41
  30    -6.427255E-44   -4.038259E-41   -1.805303E-38   -4.744161E-36   -8.003162E-34   -9.285164E-32   -7.728121E-30   -4.728652E-28   -2.153605E-26   -7.323097E-25
        -1.848601E-23   -3.407125E-22   -4.414384E-21   -3.602435E-20   -1.131444E-19    2.091100E-19   -1.131512E-19   -3.602841E-20   -4.415628E-21   -3.409659E-22
        -1.851728E-23   -7.346733E-25   -2.165169E-26   -4.767051E-28   -7.817327E-30   -9.432243E-32   -8.175167E-34   -4.884655E-36   -1.883208E-38   -4.328519E-41
        -7.404267E-44
  31      0.00000       -6.405553E-44   -8.474876E-41   -3.567345E-38   -8.118658E-36   -1.178645E-33   -1.178645E-31   -8.451451E-30   -4.435627E-28   -1.717393E-26
        -4.898888E-25   -1.022068E-23   -1.545543E-22   -1.662941E-21   -1.163853E-20   -4.886839E-20   -1.163881E-20   -1.663101E-21   -1.546001E-22   -1.022894E-23
        -4.907833E-25   -1.723348E-26   -4.461303E-28   -8.526239E-30   -1.193716E-31   -1.199796E-33   -8.322793E-36   -3.697816E-38   -8.983762E-41   -7.404267E-44
          0.00000    

 CONCENTRATION WILL BE SAVED ON UNIT 1030 AT END OF TIME STEP   95, STRESS PERIOD    2


  MASS BUDGET FOR ENTIRE MODEL AT END OF TIME STEP   95, STRESS PERIOD   2
  ---------------------------------------------------------------------------------------------------

     CUMULATIVE MASS      M       RATES FOR THIS TIME STEP      M/T          PACKAGE NAME    
     ------------------                 ------------------------                     ----------------

           IN:                                      IN:
           ---                                      ---
     STORAGE-AQUEOUS =  7581179966.7243       STORAGE-AQUEOUS =      393589.4490     MST                              
                 WEL =  7884000000.0000                   WEL =           0.0000     SSM_WEL-1                        
                 CHD =           0.0000                   CHD =           0.0000     SSM_CHD-1                        

            TOTAL IN = 15465179966.7243              TOTAL IN =      393589.4490

          OUT:                                     OUT:
          ----                                     ----
     STORAGE-AQUEOUS =  7888719102.1682       STORAGE-AQUEOUS =           2.5509     MST                              
                 WEL =  7576460864.5563                   WEL =      393586.8981     SSM_WEL-1                        
                 CHD =       7.5562E-18                   CHD =           0.0000     SSM_CHD-1                        

           TOTAL OUT = 15465179966.7245             TOTAL OUT =      393589.4490

            IN - OUT =      -1.9073E-04              IN - OUT =      -1.0617E-07

 PERCENT DISCREPANCY =          -0.00     PERCENT DISCREPANCY =          -0.00




         TIME SUMMARY AT END OF TIME STEP   95 IN STRESS PERIOD    2
                    SECONDS     MINUTES      HOURS       DAYS        YEARS
                    -----------------------------------------------------------
   TIME STEP LENGTH 2.16991E+06  36165.      602.75      25.115     6.87602E-02
 STRESS PERIOD TIME 2.06141E+08 3.43569E+06  57261.      2385.9      6.5322    
         TOTAL TIME 2.84981E+08 4.74969E+06  79161.      3298.4      9.0305    


end timestep


start timestep kper="2" kstp="96" mode="normal"

 UBDSV1 SAVING  STORAGE-AQUEOUS ON UNIT   1029 AT TIME STEP     96, STRESS PERIOD      2
 UBDSV1 SAVING     FLOW-JA-FACE ON UNIT   1029 AT TIME STEP     96, STRESS PERIOD      2
 UBDSV06 SAVING  SOURCE-SINK MIX IN MODEL GWT_P06-MF6      PACKAGE GWT_P06-MF6     CONNECTED TO MODEL GWT_P06-MF6      PACKAGE SSM              ON UNIT   1029 AT TIME STEP     96, STRESS PERIOD      2
1
  CONCENTRATION IN LAYER   1 AT END OF TIME STEP  96 IN STRESS PERIOD    2
  ---------------------------------------------------------------------------

                1               2               3               4               5               6               7               8               9              10
               11              12              13              14              15              16              17              18              19              20
               21              22              23              24              25              26              27              28              29              30
               31
 ................................................................................................................................................................................................................................................................................................................................................................................................................................................................................................................
   1      0.00000       -8.347153E-44   -9.675673E-41   -3.927111E-38   -8.767498E-36   -1.256245E-33   -1.243412E-31   -8.839276E-30   -4.604565E-28   -1.771184E-26
        -5.023826E-25   -1.042995E-23   -1.569708E-22   -1.678691E-21   -1.164275E-20   -4.834280E-20   -1.164250E-20   -1.678557E-21   -1.569344E-22   -1.042349E-23
        -5.016668E-25   -1.766248E-26   -4.582478E-28   -8.772666E-30   -1.229559E-31   -1.236250E-33   -8.569635E-36   -3.797806E-38   -9.161074E-41   -7.316997E-44
          0.00000    
   2    -8.347153E-44   -4.680429E-41   -2.001812E-38   -5.145421E-36   -8.557711E-34   -9.823184E-32   -8.104180E-30   -4.920832E-28   -2.225800E-26   -7.521505E-25
        -1.887429E-23   -3.455355E-22   -4.428053E-21   -3.516866E-20   -9.580955E-20    3.276211E-19   -9.580341E-20   -3.516525E-20   -4.427061E-21   -3.453366E-22
        -1.884916E-23   -7.501789E-25   -2.215775E-26   -4.886322E-28   -8.021366E-30   -9.682647E-32   -8.389084E-34   -5.004467E-36   -1.921947E-38   -4.376144E-41
        -7.293980E-44
   3    -9.675673E-41   -2.001812E-38   -4.099926E-36   -6.658757E-34   -8.082242E-32   -7.306468E-30   -4.958554E-28   -2.543093E-26   -9.871445E-25   -2.877569E-23
        -6.114341E-22   -8.545760E-21   -4.322126E-20    1.122690E-18    2.747525E-17    2.007995E-16    2.747537E-17    1.122762E-18   -4.319841E-20   -8.540483E-21
        -6.106547E-22   -2.870497E-23   -9.830113E-25   -2.526708E-26   -4.912796E-28   -7.214223E-30   -7.946068E-32   -6.510088E-34   -3.977564E-36   -1.920508E-38
        -9.141730E-41
   4    -3.927111E-38   -5.145421E-36   -6.658757E-34   -7.465056E-32   -6.782487E-30   -4.853073E-28   -2.702301E-26   -1.161678E-24   -3.797515E-23   -8.982029E-22
        -1.229244E-20    8.070352E-20    9.831169E-18    2.842627E-16    4.294029E-15    2.733842E-14    4.294031E-15    2.842639E-16    9.831559E-18    8.081427E-20
        -1.227247E-20   -8.960493E-22   -3.782809E-23   -1.154896E-24   -2.680133E-26   -4.799878E-28   -6.686242E-30   -7.330324E-32   -6.507341E-34   -4.999373E-36
        -3.790822E-38
   5    -8.767498E-36   -8.557711E-34   -8.082242E-32   -6.782487E-30   -4.792968E-28   -2.758203E-26   -1.263545E-24   -4.484645E-23   -1.142697E-21   -1.351413E-20
         5.106147E-19    3.971333E-17    1.488692E-15    3.480316E-14    4.783290E-13    2.880110E-12    4.783290E-13    3.480318E-14    1.488698E-15    3.971488E-17
         5.110057E-19   -1.346116E-20   -1.138360E-21   -4.461092E-23   -1.254491E-24   -2.732413E-26   -4.736526E-28   -6.684263E-30   -7.940740E-32   -8.379572E-34
        -8.555149E-36
   6    -1.256245E-33   -9.823184E-32   -7.306468E-30   -4.853073E-28   -2.758203E-26   -1.296242E-24   -4.845103E-23   -1.300301E-21   -1.186529E-20    1.286194E-18
         1.031093E-16    4.854064E-15    1.554832E-13    3.330408E-12    4.302803E-11    2.465680E-10    4.302803E-11    3.330408E-12    1.554833E-13    4.854081E-15
         1.031140E-16    1.287161E-18   -1.176479E-20   -1.293722E-21   -4.815134E-23   -1.286135E-24   -2.731802E-26   -4.797512E-28   -7.208411E-30   -9.671419E-32
        -1.234332E-33
   7    -1.243412E-31   -8.104180E-30   -4.958554E-28   -2.702301E-26   -1.263545E-24   -4.845103E-23   -1.353710E-21   -9.697743E-21    2.090260E-18    1.883370E-16
         1.077360E-14    4.401349E-13    1.283161E-11    2.549455E-10    3.097941E-09    1.682951E-08    3.097941E-09    2.549455E-10    1.283161E-11    4.401350E-13
         1.077364E-14    1.883473E-16    2.091920E-18   -9.557985E-21   -1.346017E-21   -4.814296E-23   -1.254021E-24   -2.678521E-26   -4.908631E-28   -8.012471E-30
        -1.227860E-31
   8    -8.839276E-30   -4.920832E-28   -2.543093E-26   -1.161678E-24   -4.484645E-23   -1.300301E-21   -9.697743E-21    2.433031E-18    2.522926E-16    1.708245E-14
         8.501083E-13    3.129467E-11    8.322738E-10    1.523798E-08    1.726667E-07    8.819211E-07    1.726667E-07    1.523798E-08    8.322738E-10    3.129467E-11
         8.501085E-13    1.708253E-14    2.523081E-16    2.435059E-18   -9.553287E-21   -1.293315E-21   -4.459069E-23   -1.154175E-24   -2.524676E-26   -4.881503E-28
        -8.762410E-30
   9    -4.604565E-28   -2.225800E-26   -9.871445E-25   -3.797515E-23   -1.142697E-21   -1.186529E-20    2.090260E-18    2.522926E-16    1.986502E-14    1.169550E-12
         5.200845E-11    1.719263E-09    4.117052E-08    6.835631E-07    7.118466E-06    3.378320E-05    7.118466E-06    6.835631E-07    4.117052E-08    1.719263E-09
         5.200845E-11    1.169550E-12    1.986512E-14    2.523087E-16    2.092045E-18   -1.175442E-20   -1.137812E-21   -3.780662E-23   -9.823394E-25   -2.214000E-26
        -4.578279E-28
  10    -1.771184E-26   -7.521505E-25   -2.877569E-23   -8.982029E-22   -1.351413E-20    1.286194E-18    1.883370E-16    1.708245E-14    1.169550E-12    6.134356E-11
         2.426343E-09    7.085253E-08    1.492376E-06    2.190481E-05    2.050764E-04    8.893621E-04    2.050764E-04    2.190481E-05    1.492376E-06    7.085253E-08
         2.426343E-09    6.134356E-11    1.169550E-12    1.708253E-14    1.883485E-16    1.287306E-18   -1.345198E-20   -8.956374E-22   -2.869040E-23   -7.497475E-25
        -1.765112E-26
  11    -5.023826E-25   -1.887429E-23   -6.114341E-22   -1.229244E-20    5.106147E-19    1.031093E-16    1.077360E-14    8.501083E-13    5.200845E-11    2.426343E-09
         8.418078E-08    2.117893E-06    3.790693E-05    4.732226E-04    3.851192E-03    1.489200E-02    3.851192E-03    4.732226E-04    3.790693E-05    2.117893E-06
         8.418078E-08    2.426343E-09    5.200845E-11    8.501084E-13    1.077364E-14    1.031149E-16    5.110914E-19   -1.226774E-20   -6.104599E-22   -1.884261E-23
        -5.014735E-25
  12    -1.042995E-23   -3.455355E-22   -8.545760E-21    8.070352E-20    3.971333E-17    4.854064E-15    4.401349E-13    3.129467E-11    1.719263E-09    7.085253E-08
         2.117893E-06    4.454106E-05    6.466441E-04    6.483631E-03    4.356308E-02    0.144752        4.356308E-02    6.483631E-03    6.466441E-04    4.454106E-05
         2.117893E-06    7.085253E-08    1.719263E-09    3.129467E-11    4.401350E-13    4.854083E-15    3.971524E-17    8.084333E-20   -8.539020E-21   -3.452796E-22
        -1.042158E-23
  13    -1.569708E-22   -4.428053E-21   -4.322126E-20    9.831169E-18    1.488692E-15    1.554832E-13    1.283161E-11    8.322738E-10    4.117052E-08    1.492376E-06
         3.790693E-05    6.466441E-04    7.233288E-03    5.392779E-02    0.277664        0.752047        0.277664        5.392779E-02    7.233288E-03    6.466441E-04
         3.790693E-05    1.492376E-06    4.117052E-08    8.322738E-10    1.283161E-11    1.554833E-13    1.488699E-15    9.831647E-18   -4.319267E-20   -4.426799E-21
        -1.569245E-22
  14    -1.678691E-21   -3.516866E-20    1.122690E-18    2.842627E-16    3.480316E-14    3.330408E-12    2.549455E-10    1.523798E-08    6.835631E-07    2.190481E-05
         4.732226E-04    6.483631E-03    5.392779E-02    0.278693         1.00299         2.07415         1.00299        0.278693        5.392779E-02    6.483631E-03
         4.732226E-04    2.190481E-05    6.835631E-07    1.523798E-08    2.549455E-10    3.330408E-12    3.480318E-14    2.842641E-16    1.122775E-18   -3.516459E-20
        -1.678530E-21
  15    -1.164275E-20   -9.580955E-20    2.747525E-17    4.294029E-15    4.783290E-13    4.302803E-11    3.097941E-09    1.726667E-07    7.118466E-06    2.050764E-04
         3.851192E-03    4.356308E-02    0.277664         1.00299         2.54928         3.43646         2.54928         1.00299        0.277664        4.356308E-02
         3.851192E-03    2.050764E-04    7.118466E-06    1.726667E-07    3.097941E-09    4.302803E-11    4.783290E-13    4.294031E-15    2.747539E-17   -9.580264E-20
        -1.164247E-20
  16    -4.834280E-20    3.276211E-19    2.007995E-16    2.733842E-14    2.880110E-12    2.465680E-10    1.682951E-08    8.819211E-07    3.378320E-05    8.893621E-04
         1.489200E-02    0.144752        0.752047         2.07415         3.43646         4.40211         3.43646         2.07415        0.752047        0.144752    
         1.489200E-02    8.893621E-04    3.378320E-05    8.819211E-07    1.682951E-08    2.465680E-10    2.880110E-12    2.733842E-14    2.007995E-16    3.276211E-19
        -4.834280E-20
  17    -1.164250E-20   -9.580341E-20    2.747537E-17    4.294031E-15    4.783290E-13    4.302803E-11    3.097941E-09    1.726667E-07    7.118466E-06    2.050764E-04
         3.851192E-03    4.356308E-02    0.277664         1.00299         2.54928         3.43646         2.54928         1.00299        0.277664        4.356308E-02
         3.851192E-03    2.050764E-04    7.118466E-06    1.726667E-07    3.097941E-09    4.302803E-11    4.783290E-13    4.294029E-15    2.747525E-17   -9.580955E-20
        -1.164275E-20
  18    -1.678557E-21   -3.516525E-20    1.122762E-18    2.842639E-16    3.480318E-14    3.330408E-12    2.549455E-10    1.523798E-08    6.835631E-07    2.190481E-05
         4.732226E-04    6.483631E-03    5.392779E-02    0.278693         1.00299         2.07415         1.00299        0.278693        5.392779E-02    6.483631E-03
         4.732226E-04    2.190481E-05    6.835631E-07    1.523798E-08    2.549455E-10    3.330408E-12    3.480316E-14    2.842627E-16    1.122690E-18   -3.516866E-20
        -1.678691E-21
  19    -1.569344E-22   -4.427061E-21   -4.319841E-20    9.831559E-18    1.488698E-15    1.554833E-13    1.283161E-11    8.322738E-10    4.117052E-08    1.492376E-06
         3.790693E-05    6.466441E-04    7.233288E-03    5.392779E-02    0.277664        0.752047        0.277664        5.392779E-02    7.233288E-03    6.466441E-04
         3.790693E-05    1.492376E-06    4.117052E-08    8.322738E-10    1.283161E-11    1.554832E-13    1.488692E-15    9.831169E-18   -4.322126E-20   -4.428053E-21
        -1.569708E-22
  20    -1.042349E-23   -3.453366E-22   -8.540483E-21    8.081427E-20    3.971488E-17    4.854081E-15    4.401350E-13    3.129467E-11    1.719263E-09    7.085253E-08
         2.117893E-06    4.454106E-05    6.466441E-04    6.483631E-03    4.356308E-02    0.144752        4.356308E-02    6.483631E-03    6.466441E-04    4.454106E-05
         2.117893E-06    7.085253E-08    1.719263E-09    3.129467E-11    4.401349E-13    4.854064E-15    3.971333E-17    8.070352E-20   -8.545760E-21   -3.455355E-22
        -1.042995E-23
  21    -5.016668E-25   -1.884916E-23   -6.106547E-22   -1.227247E-20    5.110057E-19    1.031140E-16    1.077364E-14    8.501085E-13    5.200845E-11    2.426343E-09
         8.418078E-08    2.117893E-06    3.790693E-05    4.732226E-04    3.851192E-03    1.489200E-02    3.851192E-03    4.732226E-04    3.790693E-05    2.117893E-06
         8.418078E-08    2.426343E-09    5.200845E-11    8.501083E-13    1.077360E-14    1.031093E-16    5.106147E-19   -1.229244E-20   -6.114341E-22   -1.887429E-23
        -5.023826E-25
  22    -1.766248E-26   -7.501789E-25   -2.870497E-23   -8.960493E-22   -1.346116E-20    1.287161E-18    1.883473E-16    1.708253E-14    1.169550E-12    6.134356E-11
         2.426343E-09    7.085253E-08    1.492376E-06    2.190481E-05    2.050764E-04    8.893621E-04    2.050764E-04    2.190481E-05    1.492376E-06    7.085253E-08
         2.426343E-09    6.134356E-11    1.169550E-12    1.708245E-14    1.883370E-16    1.286194E-18   -1.351413E-20   -8.982029E-22   -2.877569E-23   -7.521505E-25
        -1.771184E-26
  23    -4.582478E-28   -2.215775E-26   -9.830113E-25   -3.782809E-23   -1.138360E-21   -1.176479E-20    2.091920E-18    2.523081E-16    1.986512E-14    1.169550E-12
         5.200845E-11    1.719263E-09    4.117052E-08    6.835631E-07    7.118466E-06    3.378320E-05    7.118466E-06    6.835631E-07    4.117052E-08    1.719263E-09
         5.200845E-11    1.169550E-12    1.986502E-14    2.522926E-16    2.090260E-18   -1.186529E-20   -1.142697E-21   -3.797515E-23   -9.871445E-25   -2.225800E-26
        -4.604565E-28
  24    -8.772666E-30   -4.886322E-28   -2.526708E-26   -1.154896E-24   -4.461092E-23   -1.293722E-21   -9.557985E-21    2.435059E-18    2.523087E-16    1.708253E-14
         8.501084E-13    3.129467E-11    8.322738E-10    1.523798E-08    1.726667E-07    8.819211E-07    1.726667E-07    1.523798E-08    8.322738E-10    3.129467E-11
         8.501083E-13    1.708245E-14    2.522926E-16    2.433031E-18   -9.697743E-21   -1.300301E-21   -4.484645E-23   -1.161678E-24   -2.543093E-26   -4.920832E-28
        -8.839276E-30
  25    -1.229559E-31   -8.021366E-30   -4.912796E-28   -2.680133E-26   -1.254491E-24   -4.815134E-23   -1.346017E-21   -9.553287E-21    2.092045E-18    1.883485E-16
         1.077364E-14    4.401350E-13    1.283161E-11    2.549455E-10    3.097941E-09    1.682951E-08    3.097941E-09    2.549455E-10    1.283161E-11    4.401349E-13
         1.077360E-14    1.883370E-16    2.090260E-18   -9.697743E-21   -1.353710E-21   -4.845103E-23   -1.263545E-24   -2.702301E-26   -4.958554E-28   -8.104180E-30
        -1.243412E-31
  26    -1.236250E-33   -9.682647E-32   -7.214223E-30   -4.799878E-28   -2.732413E-26   -1.286135E-24   -4.814296E-23   -1.293315E-21   -1.175442E-20    1.287306E-18
         1.031149E-16    4.854083E-15    1.554833E-13    3.330408E-12    4.302803E-11    2.465680E-10    4.302803E-11    3.330408E-12    1.554832E-13    4.854064E-15
         1.031093E-16    1.286194E-18   -1.186529E-20   -1.300301E-21   -4.845103E-23   -1.296242E-24   -2.758203E-26   -4.853073E-28   -7.306468E-30   -9.823184E-32
        -1.256245E-33
  27    -8.569635E-36   -8.389084E-34   -7.946068E-32   -6.686242E-30   -4.736526E-28   -2.731802E-26   -1.254021E-24   -4.459069E-23   -1.137812E-21   -1.345198E-20
         5.110914E-19    3.971524E-17    1.488699E-15    3.480318E-14    4.783290E-13    2.880110E-12    4.783290E-13    3.480316E-14    1.488692E-15    3.971333E-17
         5.106147E-19   -1.351413E-20   -1.142697E-21   -4.484645E-23   -1.263545E-24   -2.758203E-26   -4.792968E-28   -6.782487E-30   -8.082242E-32   -8.557711E-34
        -8.767498E-36
  28    -3.797806E-38   -5.004467E-36   -6.510088E-34   -7.330324E-32   -6.684263E-30   -4.797512E-28   -2.678521E-26   -1.154175E-24   -3.780662E-23   -8.956374E-22
        -1.226774E-20    8.084333E-20    9.831647E-18    2.842641E-16    4.294031E-15    2.733842E-14    4.294029E-15    2.842627E-16    9.831169E-18    8.070352E-20
        -1.229244E-20   -8.982029E-22   -3.797515E-23   -1.161678E-24   -2.702301E-26   -4.853073E-28   -6.782487E-30   -7.465056E-32   -6.658757E-34   -5.145421E-36
        -3.927111E-38
  29    -9.161074E-41   -1.921947E-38   -3.977564E-36   -6.507341E-34   -7.940740E-32   -7.208411E-30   -4.908631E-28   -2.524676E-26   -9.823394E-25   -2.869040E-23
        -6.104599E-22   -8.539020E-21   -4.319267E-20    1.122775E-18    2.747539E-17    2.007995E-16    2.747525E-17    1.122690E-18   -4.322126E-20   -8.545760E-21
        -6.114341E-22   -2.877569E-23   -9.871445E-25   -2.543093E-26   -4.958554E-28   -7.306468E-30   -8.082242E-32   -6.658757E-34   -4.099926E-36   -2.001812E-38
        -9.675673E-41
  30    -7.316997E-44   -4.376144E-41   -1.920508E-38   -4.999373E-36   -8.379572E-34   -9.671419E-32   -8.012471E-30   -4.881503E-28   -2.214000E-26   -7.497475E-25
        -1.884261E-23   -3.452796E-22   -4.426799E-21   -3.516459E-20   -9.580264E-20    3.276211E-19   -9.580955E-20   -3.516866E-20   -4.428053E-21   -3.455355E-22
        -1.887429E-23   -7.521505E-25   -2.225800E-26   -4.920832E-28   -8.104180E-30   -9.823184E-32   -8.557711E-34   -5.145421E-36   -2.001812E-38   -4.680429E-41
        -8.347153E-44
  31      0.00000       -7.293980E-44   -9.141730E-41   -3.790822E-38   -8.555149E-36   -1.234332E-33   -1.227860E-31   -8.762410E-30   -4.578279E-28   -1.765112E-26
        -5.014735E-25   -1.042158E-23   -1.569245E-22   -1.678530E-21   -1.164247E-20   -4.834280E-20   -1.164275E-20   -1.678691E-21   -1.569708E-22   -1.042995E-23
        -5.023826E-25   -1.771184E-26   -4.604565E-28   -8.839276E-30   -1.243412E-31   -1.256245E-33   -8.767498E-36   -3.927111E-38   -9.675673E-41   -8.347153E-44
          0.00000    

 CONCENTRATION WILL BE SAVED ON UNIT 1030 AT END OF TIME STEP   96, STRESS PERIOD    2


  MASS BUDGET FOR ENTIRE MODEL AT END OF TIME STEP   96, STRESS PERIOD   2
  ---------------------------------------------------------------------------------------------------

     CUMULATIVE MASS      M       RATES FOR THIS TIME STEP      M/T          PACKAGE NAME    
     ------------------                 ------------------------                     ----------------

           IN:                                      IN:
           ---                                      ---
     STORAGE-AQUEOUS =  7590732204.2804       STORAGE-AQUEOUS =      380344.8013     MST                              
                 WEL =  7884000000.0000                   WEL =           0.0000     SSM_WEL-1                        
                 CHD =           0.0000                   CHD =           0.0000     SSM_CHD-1                        

            TOTAL IN = 15474732204.2804              TOTAL IN =      380344.8013

          OUT:                                     OUT:
          ----                                     ----
     STORAGE-AQUEOUS =  7888719162.8690       STORAGE-AQUEOUS =           2.4169     MST                              
                 WEL =  7586013041.4117                   WEL =      380342.3844     SSM_WEL-1                        
                 CHD =       7.5562E-18                   CHD =           0.0000     SSM_CHD-1                        

           TOTAL OUT = 15474732204.2806             TOTAL OUT =      380344.8013

            IN - OUT =      -1.9264E-04              IN - OUT =      -1.0210E-07

 PERCENT DISCREPANCY =          -0.00     PERCENT DISCREPANCY =          -0.00




         TIME SUMMARY AT END OF TIME STEP   96 IN STRESS PERIOD    2
                    SECONDS     MINUTES      HOURS       DAYS        YEARS
                    -----------------------------------------------------------
   TIME STEP LENGTH 2.16991E+06  36165.      602.75      25.115     6.87602E-02
 STRESS PERIOD TIME 2.08311E+08 3.47185E+06  57864.      2411.0      6.6010    
         TOTAL TIME 2.87151E+08 4.78585E+06  79764.      3323.5      9.0993    


end timestep


start timestep kper="2" kstp="97" mode="normal"

 UBDSV1 SAVING  STORAGE-AQUEOUS ON UNIT   1029 AT TIME STEP     97, STRESS PERIOD      2
 UBDSV1 SAVING     FLOW-JA-FACE ON UNIT   1029 AT TIME STEP     97, STRESS PERIOD      2
 UBDSV06 SAVING  SOURCE-SINK MIX IN MODEL GWT_P06-MF6      PACKAGE GWT_P06-MF6     CONNECTED TO MODEL GWT_P06-MF6      PACKAGE SSM              ON UNIT   1029 AT TIME STEP     97, STRESS PERIOD      2
1
  CONCENTRATION IN LAYER   1 AT END OF TIME STEP  97 IN STRESS PERIOD    2
  ---------------------------------------------------------------------------

                1               2               3               4               5               6               7               8               9              10
               11              12              13              14              15              16              17              18              19              20
               21              22              23              24              25              26              27              28              29              30
               31
 ................................................................................................................................................................................................................................................................................................................................................................................................................................................................................................................
   1      0.00000       -9.362502E-44   -1.041014E-40   -4.168509E-38   -9.232822E-36   -1.315007E-33   -1.294899E-31   -9.162169E-30   -4.751710E-28   -1.820111E-26
        -5.141923E-25   -1.063333E-23   -1.593385E-22   -1.693615E-21   -1.163529E-20   -4.774596E-20   -1.163504E-20   -1.693479E-21   -1.593018E-22   -1.062678E-23
        -5.134649E-25   -1.815078E-26   -4.729103E-28   -9.093729E-30   -1.280609E-31   -1.294299E-33   -9.027079E-36   -4.033495E-38   -9.870429E-41   -8.276626E-44
          0.00000    
   2    -9.362502E-44   -5.054188E-41   -2.126670E-38   -5.418213E-36   -8.955845E-34   -1.022820E-31   -8.400081E-30   -5.078801E-28   -2.287813E-26   -7.699336E-25
        -1.923432E-23   -3.500236E-22   -4.435761E-21   -3.419689E-20   -7.700401E-20    4.543330E-19   -7.699783E-20   -3.419345E-20   -4.434761E-21   -3.498228E-22
        -1.920885E-23   -7.679294E-25   -2.277585E-26   -5.043463E-28   -8.314966E-30   -1.008322E-31   -8.781255E-34   -5.271728E-36   -2.043342E-38   -4.735271E-41
        -8.252221E-44
   3    -1.041014E-40   -2.126670E-38   -4.317286E-36   -6.967196E-34   -8.413571E-32   -7.572099E-30   -5.117565E-28   -2.614121E-26   -1.010511E-24   -2.930958E-23
        -6.176091E-22   -8.443118E-21   -3.591316E-20    1.307829E-18    3.003108E-17    2.159466E-16    3.003120E-17    1.307901E-18   -3.589021E-20   -8.437806E-21
        -6.168221E-22   -2.923792E-23   -1.006308E-24   -2.597397E-26   -5.070695E-28   -7.477281E-30   -8.273111E-32   -6.813305E-34   -4.190153E-36   -2.041835E-38
        -9.850040E-41
   4    -4.168509E-38   -5.418213E-36   -6.967196E-34   -7.770237E-32   -7.028055E-30   -5.008151E-28   -2.777618E-26   -1.189054E-24   -3.865358E-23   -9.038807E-22
        -1.182497E-20    1.108908E-19    1.083052E-17    3.060987E-16    4.574287E-15    2.890887E-14    4.574289E-15    3.060999E-16    1.083091E-17    1.110018E-19
        -1.180488E-20   -9.017058E-22   -3.850452E-23   -1.182155E-24   -2.754987E-26   -4.953655E-28   -6.929122E-30   -7.631267E-32   -6.810453E-34   -5.266416E-36
        -4.026173E-38
   5    -9.232822E-36   -8.955845E-34   -8.413571E-32   -7.028055E-30   -4.945852E-28   -2.834888E-26   -1.293152E-24   -4.561700E-23   -1.145220E-21   -1.234024E-20
         5.939718E-19    4.319708E-17    1.594037E-15    3.692124E-14    5.037334E-13    3.013889E-12    5.037334E-13    3.692126E-14    1.594043E-15    4.319863E-17
         5.943632E-19   -1.228695E-20   -1.140841E-21   -4.537821E-23   -1.283939E-24   -2.808556E-26   -4.888027E-28   -6.927085E-30   -8.267602E-32   -8.771379E-34
        -9.011968E-36
   6    -1.315007E-33   -1.022820E-31   -7.572099E-30   -5.008151E-28   -2.834888E-26   -1.326537E-24   -4.926273E-23   -1.298882E-21   -9.824653E-21    1.451959E-18
         1.115342E-16    5.181011E-15    1.644639E-13    3.496268E-12    4.487061E-11    2.555678E-10    4.487061E-11    3.496268E-12    1.644640E-13    5.181028E-15
         1.115389E-16    1.452926E-18   -9.723568E-21   -1.292237E-21   -4.895885E-23   -1.316253E-24   -2.807931E-26   -4.951228E-28   -7.471296E-30   -1.007161E-31
        -1.292308E-33
   7    -1.294899E-31   -8.400081E-30   -5.117565E-28   -2.777618E-26   -1.293152E-24   -4.926273E-23   -1.350507E-21   -7.053891E-21    2.328036E-18    2.031522E-16
         1.147570E-14    4.645308E-13    1.343510E-11    2.650236E-10    3.199519E-09    1.727778E-08    3.199519E-09    2.650236E-10    1.343510E-11    4.645310E-13
         1.147574E-14    2.031624E-16    2.329690E-18   -6.913345E-21   -1.342735E-21   -4.895035E-23   -1.283460E-24   -2.753339E-26   -5.066424E-28   -8.305810E-30
        -1.278854E-31
   8    -9.162169E-30   -5.078801E-28   -2.614121E-26   -1.189054E-24   -4.561700E-23   -1.298882E-21   -7.053891E-21    2.696420E-18    2.718170E-16    1.817405E-14
         8.958553E-13    3.269851E-11    8.628091E-10    1.568444E-08    1.765853E-07    8.966563E-07    1.765853E-07    1.568444E-08    8.628091E-10    3.269851E-11
         8.958555E-13    1.817412E-14    2.718325E-16    2.698436E-18   -6.908620E-21   -1.291825E-21   -4.535768E-23   -1.181421E-24   -2.595321E-26   -5.038523E-28
        -9.083178E-30
   9    -4.751710E-28   -2.287813E-26   -1.010511E-24   -3.865358E-23   -1.145220E-21   -9.824653E-21    2.328036E-18    2.718170E-16    2.112615E-14    1.231513E-12
         5.426821E-11    1.778649E-09    4.225450E-08    6.965319E-07    7.207562E-06    3.401104E-05    7.207562E-06    6.965319E-07    4.225450E-08    1.778649E-09
         5.426821E-11    1.231513E-12    2.112624E-14    2.718331E-16    2.329814E-18   -9.713136E-21   -1.140287E-21   -3.848276E-23   -1.005624E-24   -2.275774E-26
        -4.724802E-28
  10    -1.820111E-26   -7.699336E-25   -2.930958E-23   -9.038807E-22   -1.234024E-20    1.451959E-18    2.031522E-16    1.817405E-14    1.231513E-12    6.397906E-11
         2.507320E-09    7.257247E-08    1.516142E-06    2.209297E-05    2.055547E-04    8.865695E-04    2.055547E-04    2.209297E-05    1.516142E-06    7.257247E-08
         2.507320E-09    6.397906E-11    1.231513E-12    1.817412E-14    2.031636E-16    1.453072E-18   -1.227772E-20   -9.012899E-22   -2.922315E-23   -7.674907E-25
        -1.813918E-26
  11    -5.141923E-25   -1.923432E-23   -6.176091E-22   -1.182497E-20    5.939718E-19    1.115342E-16    1.147570E-14    8.958553E-13    5.426821E-11    2.507320E-09
         8.616230E-08    2.147871E-06    3.811964E-05    4.724239E-04    3.821749E-03    1.470335E-02    3.821749E-03    4.724239E-04    3.811964E-05    2.147871E-06
         8.616230E-08    2.507320E-09    5.426821E-11    8.958555E-13    1.147574E-14    1.115398E-16    5.944489E-19   -1.180012E-20   -6.166254E-22   -1.920222E-23
        -5.132686E-25
  12    -1.063333E-23   -3.500236E-22   -8.443118E-21    1.108908E-19    4.319708E-17    5.181011E-15    4.645308E-13    3.269851E-11    1.778649E-09    7.257247E-08
         2.147871E-06    4.474028E-05    6.438758E-04    6.409196E-03    4.282537E-02    0.141678        4.282537E-02    6.409196E-03    6.438758E-04    4.474028E-05
         2.147871E-06    7.257247E-08    1.778649E-09    3.269851E-11    4.645310E-13    5.181031E-15    4.319898E-17    1.110309E-19   -8.436334E-21   -3.497652E-22
        -1.062485E-23
  13    -1.593385E-22   -4.435761E-21   -3.591316E-20    1.083052E-17    1.594037E-15    1.644639E-13    1.343510E-11    8.628091E-10    4.225450E-08    1.516142E-06
         3.811964E-05    6.438758E-04    7.138383E-03    5.284702E-02    0.270824        0.731158        0.270824        5.284702E-02    7.138383E-03    6.438758E-04
         3.811964E-05    1.516142E-06    4.225450E-08    8.628091E-10    1.343510E-11    1.644640E-13    1.594044E-15    1.083100E-17   -3.588446E-20   -4.434497E-21
        -1.592918E-22
  14    -1.693615E-21   -3.419689E-20    1.307829E-18    3.060987E-16    3.692124E-14    3.496268E-12    2.650236E-10    1.568444E-08    6.965319E-07    2.209297E-05
         4.724239E-04    6.409196E-03    5.284702E-02    0.271355        0.973113         2.00878        0.973113        0.271355        5.284702E-02    6.409196E-03
         4.724239E-04    2.209297E-05    6.965319E-07    1.568444E-08    2.650236E-10    3.496268E-12    3.692127E-14    3.061001E-16    1.307914E-18   -3.419279E-20
        -1.693452E-21
  15    -1.163529E-20   -7.700401E-20    3.003108E-17    4.574287E-15    5.037334E-13    4.487061E-11    3.199519E-09    1.765853E-07    7.207562E-06    2.055547E-04
         3.821749E-03    4.282537E-02    0.270824        0.973113         2.46673         3.32315         2.46673        0.973113        0.270824        4.282537E-02
         3.821749E-03    2.055547E-04    7.207562E-06    1.765853E-07    3.199519E-09    4.487061E-11    5.037334E-13    4.574290E-15    3.003122E-17   -7.699707E-20
        -1.163501E-20
  16    -4.774596E-20    4.543330E-19    2.159466E-16    2.890887E-14    3.013889E-12    2.555678E-10    1.727778E-08    8.966563E-07    3.401104E-05    8.865695E-04
         1.470335E-02    0.141678        0.731158         2.00878         3.32315         4.25434         3.32315         2.00878        0.731158        0.141678    
         1.470335E-02    8.865695E-04    3.401104E-05    8.966563E-07    1.727778E-08    2.555678E-10    3.013889E-12    2.890887E-14    2.159466E-16    4.543330E-19
        -4.774596E-20
  17    -1.163504E-20   -7.699783E-20    3.003120E-17    4.574289E-15    5.037334E-13    4.487061E-11    3.199519E-09    1.765853E-07    7.207562E-06    2.055547E-04
         3.821749E-03    4.282537E-02    0.270824        0.973113         2.46673         3.32315         2.46673        0.973113        0.270824        4.282537E-02
         3.821749E-03    2.055547E-04    7.207562E-06    1.765853E-07    3.199519E-09    4.487061E-11    5.037334E-13    4.574287E-15    3.003108E-17   -7.700401E-20
        -1.163529E-20
  18    -1.693479E-21   -3.419345E-20    1.307901E-18    3.060999E-16    3.692126E-14    3.496268E-12    2.650236E-10    1.568444E-08    6.965319E-07    2.209297E-05
         4.724239E-04    6.409196E-03    5.284702E-02    0.271355        0.973113         2.00878        0.973113        0.271355        5.284702E-02    6.409196E-03
         4.724239E-04    2.209297E-05    6.965319E-07    1.568444E-08    2.650236E-10    3.496268E-12    3.692124E-14    3.060987E-16    1.307829E-18   -3.419689E-20
        -1.693615E-21
  19    -1.593018E-22   -4.434761E-21   -3.589021E-20    1.083091E-17    1.594043E-15    1.644640E-13    1.343510E-11    8.628091E-10    4.225450E-08    1.516142E-06
         3.811964E-05    6.438758E-04    7.138383E-03    5.284702E-02    0.270824        0.731158        0.270824        5.284702E-02    7.138383E-03    6.438758E-04
         3.811964E-05    1.516142E-06    4.225450E-08    8.628091E-10    1.343510E-11    1.644639E-13    1.594037E-15    1.083052E-17   -3.591316E-20   -4.435760E-21
        -1.593385E-22
  20    -1.062678E-23   -3.498228E-22   -8.437806E-21    1.110018E-19    4.319863E-17    5.181028E-15    4.645310E-13    3.269851E-11    1.778649E-09    7.257247E-08
         2.147871E-06    4.474028E-05    6.438758E-04    6.409196E-03    4.282537E-02    0.141678        4.282537E-02    6.409196E-03    6.438758E-04    4.474028E-05
         2.147871E-06    7.257247E-08    1.778649E-09    3.269851E-11    4.645308E-13    5.181011E-15    4.319708E-17    1.108908E-19   -8.443118E-21   -3.500236E-22
        -1.063333E-23
  21    -5.134649E-25   -1.920885E-23   -6.168221E-22   -1.180488E-20    5.943632E-19    1.115389E-16    1.147574E-14    8.958555E-13    5.426821E-11    2.507320E-09
         8.616230E-08    2.147871E-06    3.811964E-05    4.724239E-04    3.821749E-03    1.470335E-02    3.821749E-03    4.724239E-04    3.811964E-05    2.147871E-06
         8.616230E-08    2.507320E-09    5.426821E-11    8.958553E-13    1.147570E-14    1.115342E-16    5.939718E-19   -1.182497E-20   -6.176091E-22   -1.923432E-23
        -5.141923E-25
  22    -1.815078E-26   -7.679294E-25   -2.923792E-23   -9.017058E-22   -1.228695E-20    1.452926E-18    2.031624E-16    1.817412E-14    1.231513E-12    6.397906E-11
         2.507320E-09    7.257247E-08    1.516142E-06    2.209297E-05    2.055547E-04    8.865695E-04    2.055547E-04    2.209297E-05    1.516142E-06    7.257247E-08
         2.507320E-09    6.397906E-11    1.231513E-12    1.817405E-14    2.031522E-16    1.451959E-18   -1.234024E-20   -9.038807E-22   -2.930958E-23   -7.699336E-25
        -1.820111E-26
  23    -4.729103E-28   -2.277585E-26   -1.006308E-24   -3.850452E-23   -1.140841E-21   -9.723568E-21    2.329690E-18    2.718325E-16    2.112624E-14    1.231513E-12
         5.426821E-11    1.778649E-09    4.225450E-08    6.965319E-07    7.207562E-06    3.401104E-05    7.207562E-06    6.965319E-07    4.225450E-08    1.778649E-09
         5.426821E-11    1.231513E-12    2.112615E-14    2.718170E-16    2.328036E-18   -9.824652E-21   -1.145220E-21   -3.865358E-23   -1.010511E-24   -2.287813E-26
        -4.751710E-28
  24    -9.093729E-30   -5.043463E-28   -2.597397E-26   -1.182155E-24   -4.537821E-23   -1.292237E-21   -6.913345E-21    2.698436E-18    2.718331E-16    1.817412E-14
         8.958555E-13    3.269851E-11    8.628091E-10    1.568444E-08    1.765853E-07    8.966563E-07    1.765853E-07    1.568444E-08    8.628091E-10    3.269851E-11
         8.958553E-13    1.817405E-14    2.718170E-16    2.696420E-18   -7.053891E-21   -1.298882E-21   -4.561700E-23   -1.189054E-24   -2.614121E-26   -5.078801E-28
        -9.162169E-30
  25    -1.280609E-31   -8.314966E-30   -5.070695E-28   -2.754987E-26   -1.283939E-24   -4.895885E-23   -1.342735E-21   -6.908620E-21    2.329814E-18    2.031636E-16
         1.147574E-14    4.645310E-13    1.343510E-11    2.650236E-10    3.199519E-09    1.727778E-08    3.199519E-09    2.650236E-10    1.343510E-11    4.645308E-13
         1.147570E-14    2.031522E-16    2.328036E-18   -7.053891E-21   -1.350507E-21   -4.926273E-23   -1.293152E-24   -2.777618E-26   -5.117565E-28   -8.400081E-30
        -1.294899E-31
  26    -1.294299E-33   -1.008322E-31   -7.477281E-30   -4.953655E-28   -2.808556E-26   -1.316253E-24   -4.895035E-23   -1.291825E-21   -9.713136E-21    1.453072E-18
         1.115398E-16    5.181031E-15    1.644640E-13    3.496268E-12    4.487061E-11    2.555678E-10    4.487061E-11    3.496268E-12    1.644639E-13    5.181011E-15
         1.115342E-16    1.451959E-18   -9.824652E-21   -1.298882E-21   -4.926273E-23   -1.326537E-24   -2.834888E-26   -5.008151E-28   -7.572099E-30   -1.022820E-31
        -1.315007E-33
  27    -9.027079E-36   -8.781255E-34   -8.273111E-32   -6.929122E-30   -4.888027E-28   -2.807931E-26   -1.283460E-24   -4.535768E-23   -1.140287E-21   -1.227772E-20
         5.944489E-19    4.319898E-17    1.594044E-15    3.692127E-14    5.037334E-13    3.013889E-12    5.037334E-13    3.692124E-14    1.594037E-15    4.319708E-17
         5.939718E-19   -1.234024E-20   -1.145220E-21   -4.561700E-23   -1.293152E-24   -2.834888E-26   -4.945852E-28   -7.028055E-30   -8.413571E-32   -8.955845E-34
        -9.232822E-36
  28    -4.033495E-38   -5.271728E-36   -6.813305E-34   -7.631267E-32   -6.927085E-30   -4.951228E-28   -2.753339E-26   -1.181421E-24   -3.848276E-23   -9.012899E-22
        -1.180012E-20    1.110309E-19    1.083100E-17    3.061001E-16    4.574290E-15    2.890887E-14    4.574287E-15    3.060987E-16    1.083052E-17    1.108908E-19
        -1.182497E-20   -9.038807E-22   -3.865358E-23   -1.189054E-24   -2.777618E-26   -5.008151E-28   -7.028055E-30   -7.770237E-32   -6.967196E-34   -5.418213E-36
        -4.168509E-38
  29    -9.870429E-41   -2.043342E-38   -4.190153E-36   -6.810453E-34   -8.267602E-32   -7.471296E-30   -5.066424E-28   -2.595321E-26   -1.005624E-24   -2.922315E-23
        -6.166254E-22   -8.436334E-21   -3.588446E-20    1.307914E-18    3.003122E-17    2.159466E-16    3.003108E-17    1.307829E-18   -3.591316E-20   -8.443118E-21
        -6.176091E-22   -2.930958E-23   -1.010511E-24   -2.614121E-26   -5.117565E-28   -7.572099E-30   -8.413571E-32   -6.967196E-34   -4.317286E-36   -2.126670E-38
        -1.041014E-40
  30    -8.276626E-44   -4.735271E-41   -2.041835E-38   -5.266416E-36   -8.771379E-34   -1.007161E-31   -8.305810E-30   -5.038523E-28   -2.275774E-26   -7.674907E-25
        -1.920222E-23   -3.497652E-22   -4.434497E-21   -3.419279E-20   -7.699707E-20    4.543330E-19   -7.700401E-20   -3.419689E-20   -4.435760E-21   -3.500236E-22
        -1.923432E-23   -7.699336E-25   -2.287813E-26   -5.078801E-28   -8.400081E-30   -1.022820E-31   -8.955845E-34   -5.418213E-36   -2.126670E-38   -5.054188E-41
        -9.362501E-44
  31      0.00000       -8.252221E-44   -9.850040E-41   -4.026173E-38   -9.011968E-36   -1.292308E-33   -1.278854E-31   -9.083178E-30   -4.724802E-28   -1.813918E-26
        -5.132686E-25   -1.062485E-23   -1.592918E-22   -1.693452E-21   -1.163501E-20   -4.774596E-20   -1.163529E-20   -1.693615E-21   -1.593385E-22   -1.063333E-23
        -5.141923E-25   -1.820111E-26   -4.751710E-28   -9.162169E-30   -1.294899E-31   -1.315007E-33   -9.232822E-36   -4.168509E-38   -1.041014E-40   -9.362501E-44
          0.00000    

 CONCENTRATION WILL BE SAVED ON UNIT 1030 AT END OF TIME STEP   97, STRESS PERIOD    2


  MASS BUDGET FOR ENTIRE MODEL AT END OF TIME STEP   97, STRESS PERIOD   2
  ---------------------------------------------------------------------------------------------------

     CUMULATIVE MASS      M       RATES FOR THIS TIME STEP      M/T          PACKAGE NAME    
     ------------------                 ------------------------                     ----------------

           IN:                                      IN:
           ---                                      ---
     STORAGE-AQUEOUS =  7599963778.3164       STORAGE-AQUEOUS =      367576.8292     MST                              
                 WEL =  7884000000.0000                   WEL =           0.0000     SSM_WEL-1                        
                 CHD =           0.0000                   CHD =           0.0000     SSM_CHD-1                        

            TOTAL IN = 15483963778.3164              TOTAL IN =      367576.8292

          OUT:                                     OUT:
          ----                                     ----
     STORAGE-AQUEOUS =  7888719220.2326       STORAGE-AQUEOUS =           2.2841     MST                              
                 WEL =  7595244558.0840                   WEL =      367574.5451     SSM_WEL-1                        
                 CHD =       7.5562E-18                   CHD =           0.0000     SSM_CHD-1                        

           TOTAL OUT = 15483963778.3166             TOTAL OUT =      367576.8292

            IN - OUT =      -1.9455E-04              IN - OUT =      -9.9128E-08

 PERCENT DISCREPANCY =          -0.00     PERCENT DISCREPANCY =          -0.00




         TIME SUMMARY AT END OF TIME STEP   97 IN STRESS PERIOD    2
                    SECONDS     MINUTES      HOURS       DAYS        YEARS
                    -----------------------------------------------------------
   TIME STEP LENGTH 2.16991E+06  36165.      602.75      25.115     6.87602E-02
 STRESS PERIOD TIME 2.10481E+08 3.50802E+06  58467.      2436.1      6.6697    
         TOTAL TIME 2.89321E+08 4.82202E+06  80367.      3348.6      9.1680    


end timestep


start timestep kper="2" kstp="98" mode="normal"

 UBDSV1 SAVING  STORAGE-AQUEOUS ON UNIT   1029 AT TIME STEP     98, STRESS PERIOD      2
 UBDSV1 SAVING     FLOW-JA-FACE ON UNIT   1029 AT TIME STEP     98, STRESS PERIOD      2
 UBDSV06 SAVING  SOURCE-SINK MIX IN MODEL GWT_P06-MF6      PACKAGE GWT_P06-MF6     CONNECTED TO MODEL GWT_P06-MF6      PACKAGE SSM              ON UNIT   1029 AT TIME STEP     98, STRESS PERIOD      2
1
  CONCENTRATION IN LAYER   1 AT END OF TIME STEP  98 IN STRESS PERIOD    2
  ---------------------------------------------------------------------------

                1               2               3               4               5               6               7               8               9              10
               11              12              13              14              15              16              17              18              19              20
               21              22              23              24              25              26              27              28              29              30
               31
 ................................................................................................................................................................................................................................................................................................................................................................................................................................................................................................................
   1      0.00000       -1.045473E-43   -1.118939E-40   -4.422566E-38   -9.719599E-36   -1.376162E-33   -1.348235E-31   -9.495180E-30   -4.902822E-28   -1.870145E-26
        -5.262138E-25   -1.083901E-23   -1.617002E-22   -1.707800E-21   -1.161555E-20   -4.707526E-20   -1.161529E-20   -1.707663E-21   -1.616631E-22   -1.083237E-23
        -5.254748E-25   -1.865013E-26   -4.879686E-28   -9.424866E-30   -1.333497E-31   -1.354719E-33   -9.505698E-36   -4.281617E-38   -1.062347E-40   -9.310450E-44
          0.00000    
   2    -1.045473E-43   -5.450937E-41   -2.258065E-38   -5.703513E-36   -9.370120E-34   -1.064771E-31   -8.705269E-30   -5.241049E-28   -2.351231E-26   -7.880227E-25
        -1.959710E-23   -3.544168E-22   -4.438343E-21   -3.310548E-20   -5.665005E-20    5.862740E-19   -5.664384E-20   -3.310202E-20   -4.437336E-21   -3.542140E-22
        -1.957131E-23   -7.859856E-25   -2.340797E-26   -5.204867E-28   -8.617800E-30   -1.049818E-31   -9.189381E-34   -5.551306E-36   -2.171141E-38   -5.116758E-41
        -9.284583E-44
   3    -1.118939E-40   -2.258065E-38   -4.544588E-36   -7.288087E-34   -8.756723E-32   -7.846054E-30   -5.280886E-28   -2.686751E-26   -1.034260E-24   -2.984501E-23
        -6.234076E-22   -8.319010E-21   -2.793264E-20    1.505924E-18    3.274244E-17    2.319077E-16    3.274256E-17    1.505996E-18   -2.790959E-20   -8.313662E-21
        -6.226129E-22   -2.977240E-23   -1.029986E-24   -2.669684E-26   -5.232883E-28   -7.748601E-30   -8.611857E-32   -7.128812E-34   -4.412519E-36   -2.169562E-38
        -1.060199E-40
   4    -4.422566E-38   -5.703513E-36   -7.288087E-34   -8.086284E-32   -7.281301E-30   -5.167423E-28   -2.854624E-26   -1.216854E-24   -3.933012E-23   -9.086126E-22
        -1.129552E-20    1.435653E-19    1.189632E-17    3.291933E-16    4.868570E-15    3.054715E-14    4.868572E-15    3.291945E-16    1.189671E-17    1.436766E-19
        -1.127530E-20   -9.064164E-22   -3.917904E-23   -1.209836E-24   -2.831523E-26   -5.111602E-28   -7.179616E-30   -7.942960E-32   -7.125852E-34   -5.545766E-36
        -4.273943E-38
   5    -9.719599E-36   -9.370120E-34   -8.756723E-32   -7.281301E-30   -5.102867E-28   -2.913284E-26   -1.323195E-24   -4.638118E-23   -1.146021E-21   -1.103495E-20
         6.838085E-19    4.690314E-17    1.705157E-15    3.913853E-14    5.301434E-13    3.152064E-12    5.301435E-13    3.913855E-14    1.705163E-15    4.690468E-17
         6.842004E-19   -1.098135E-20   -1.141598E-21   -4.613910E-23   -1.313822E-24   -2.886401E-26   -5.043631E-28   -7.177519E-30   -8.606163E-32   -9.179130E-34
        -9.489939E-36
   6    -1.376162E-33   -1.064771E-31   -7.846054E-30   -5.167423E-28   -2.913284E-26   -1.357271E-24   -5.006493E-23   -1.295053E-21   -7.576597E-21    1.630168E-18
         1.204799E-16    5.525120E-15    1.738395E-13    3.668121E-12    4.676638E-11    2.647660E-10    4.676638E-11    3.668121E-12    1.738396E-13    5.525136E-15
         1.204846E-16    1.631136E-18   -7.474940E-21   -1.288341E-21   -4.975683E-23   -1.346807E-24   -2.885763E-26   -5.109112E-28   -7.742440E-30   -1.048618E-31
        -1.352653E-33
   7    -1.348235E-31   -8.705269E-30   -5.280886E-28   -2.854624E-26   -1.323195E-24   -5.006493E-23   -1.344620E-21   -4.156364E-21    2.583082E-18    2.188630E-16
         1.221339E-14    4.899408E-13    1.405850E-11    2.753532E-10    3.302868E-09    1.773062E-08    3.302868E-09    2.753532E-10    1.405850E-11    4.899409E-13
         1.221343E-14    2.188731E-16    2.584731E-18   -4.015045E-21   -1.336770E-21   -4.974821E-23   -1.313334E-24   -2.829839E-26   -5.228502E-28   -8.608376E-30
        -1.331683E-31
   8    -9.495180E-30   -5.241049E-28   -2.686751E-26   -1.216854E-24   -4.638118E-23   -1.295053E-21   -4.156364E-21    2.978696E-18    2.925087E-16    1.931973E-14
         9.434226E-13    3.414500E-11    8.939964E-10    1.613660E-08    1.805214E-07    9.113298E-07    1.805214E-07    1.613660E-08    8.939964E-10    3.414500E-11
         9.434228E-13    1.931980E-14    2.925240E-16    2.980699E-18   -4.010294E-21   -1.287925E-21   -4.611829E-23   -1.209089E-24   -2.667564E-26   -5.199804E-28
        -9.414013E-30
   9    -4.902822E-28   -2.351231E-26   -1.034260E-24   -3.933012E-23   -1.146021E-21   -7.576597E-21    2.583082E-18    2.925087E-16    2.244928E-14    1.295882E-12
         5.659265E-11    1.839132E-09    4.334762E-08    7.094779E-07    7.295468E-06    3.423159E-05    7.295468E-06    7.094779E-07    4.334762E-08    1.839132E-09
         5.659265E-11    1.295882E-12    2.244937E-14    2.925246E-16    2.584854E-18   -7.464450E-21   -1.141038E-21   -3.915698E-23   -1.029290E-24   -2.338948E-26
        -4.875281E-28
  10    -1.870145E-26   -7.880227E-25   -2.984501E-23   -9.086126E-22   -1.103495E-20    1.630168E-18    2.188630E-16    1.931973E-14    1.295882E-12    6.668836E-11
         2.589661E-09    7.430127E-08    1.539718E-06    2.227612E-05    2.059863E-04    8.836315E-04    2.059863E-04    2.227612E-05    1.539718E-06    7.430127E-08
         2.589661E-09    6.668836E-11    1.295882E-12    1.931980E-14    2.188743E-16    1.631281E-18   -1.097207E-20   -9.059964E-22   -2.975744E-23   -7.855396E-25
        -1.863831E-26
  11    -5.262138E-25   -1.959710E-23   -6.234076E-22   -1.129552E-20    6.838085E-19    1.204799E-16    1.221339E-14    9.434226E-13    5.659265E-11    2.589661E-09
         8.815154E-08    2.177481E-06    3.832259E-05    4.715270E-04    3.791977E-03    1.451579E-02    3.791977E-03    4.715270E-04    3.832259E-05    2.177481E-06
         8.815154E-08    2.589661E-09    5.659265E-11    9.434228E-13    1.221344E-14    1.204854E-16    6.842861E-19   -1.127052E-20   -6.224143E-22   -1.956459E-23
        -5.252753E-25
  12    -1.083901E-23   -3.544168E-22   -8.319010E-21    1.435653E-19    4.690314E-17    5.525120E-15    4.899408E-13    3.414500E-11    1.839132E-09    7.430127E-08
         2.177481E-06    4.492768E-05    6.409911E-04    6.334843E-03    4.209774E-02    0.138670        4.209774E-02    6.334843E-03    6.409911E-04    4.492768E-05
         2.177481E-06    7.430127E-08    1.839132E-09    3.414500E-11    4.899409E-13    5.525139E-15    4.690503E-17    1.437057E-19   -8.312181E-21   -3.541559E-22
        -1.083042E-23
  13    -1.617002E-22   -4.438343E-21   -2.793264E-20    1.189632E-17    1.705157E-15    1.738395E-13    1.405850E-11    8.939964E-10    4.334762E-08    1.539718E-06
         3.832259E-05    6.409911E-04    7.043924E-03    5.178612E-02    0.264159        0.710892        0.264159        5.178612E-02    7.043924E-03    6.409911E-04
         3.832259E-05    1.539718E-06    4.334762E-08    8.939964E-10    1.405850E-11    1.738396E-13    1.705164E-15    1.189679E-17   -2.790382E-20   -4.437070E-21
        -1.616530E-22
  14    -1.707800E-21   -3.310548E-20    1.505924E-18    3.291933E-16    3.913853E-14    3.668121E-12    2.753532E-10    1.613660E-08    7.094779E-07    2.227612E-05
         4.715270E-04    6.334843E-03    5.178612E-02    0.264220        0.944195         1.94565        0.944195        0.264220        5.178612E-02    6.334843E-03
         4.715270E-04    2.227612E-05    7.094779E-07    1.613660E-08    2.753532E-10    3.668121E-12    3.913855E-14    3.291947E-16    1.506009E-18   -3.310136E-20
        -1.707635E-21
  15    -1.161555E-20   -5.665005E-20    3.274244E-17    4.868570E-15    5.301434E-13    4.676638E-11    3.302868E-09    1.805214E-07    7.295468E-06    2.059863E-04
         3.791977E-03    4.209774E-02    0.264159        0.944195         2.38704         3.21385         2.38704        0.944195        0.264159        4.209774E-02
         3.791977E-03    2.059863E-04    7.295468E-06    1.805214E-07    3.302868E-09    4.676638E-11    5.301435E-13    4.868572E-15    3.274257E-17   -5.664307E-20
        -1.161526E-20
  16    -4.707526E-20    5.862740E-19    2.319077E-16    3.054715E-14    3.152064E-12    2.647660E-10    1.773062E-08    9.113298E-07    3.423159E-05    8.836315E-04
         1.451579E-02    0.138670        0.710892         1.94565         3.21385         4.11187         3.21385         1.94565        0.710892        0.138670    
         1.451579E-02    8.836315E-04    3.423159E-05    9.113298E-07    1.773062E-08    2.647660E-10    3.152064E-12    3.054715E-14    2.319077E-16    5.862739E-19
        -4.707526E-20
  17    -1.161529E-20   -5.664384E-20    3.274256E-17    4.868572E-15    5.301435E-13    4.676638E-11    3.302868E-09    1.805214E-07    7.295468E-06    2.059863E-04
         3.791977E-03    4.209774E-02    0.264159        0.944195         2.38704         3.21385         2.38704        0.944195        0.264159        4.209774E-02
         3.791977E-03    2.059863E-04    7.295468E-06    1.805214E-07    3.302868E-09    4.676638E-11    5.301434E-13    4.868570E-15    3.274244E-17   -5.665005E-20
        -1.161555E-20
  18    -1.707663E-21   -3.310202E-20    1.505996E-18    3.291945E-16    3.913855E-14    3.668121E-12    2.753532E-10    1.613660E-08    7.094779E-07    2.227612E-05
         4.715270E-04    6.334843E-03    5.178612E-02    0.264220        0.944195         1.94565        0.944195        0.264220        5.178612E-02    6.334843E-03
         4.715270E-04    2.227612E-05    7.094779E-07    1.613660E-08    2.753532E-10    3.668121E-12    3.913853E-14    3.291933E-16    1.505924E-18   -3.310548E-20
        -1.707800E-21
  19    -1.616631E-22   -4.437336E-21   -2.790959E-20    1.189671E-17    1.705163E-15    1.738396E-13    1.405850E-11    8.939964E-10    4.334762E-08    1.539718E-06
         3.832259E-05    6.409911E-04    7.043924E-03    5.178612E-02    0.264159        0.710892        0.264159        5.178612E-02    7.043924E-03    6.409911E-04
         3.832259E-05    1.539718E-06    4.334762E-08    8.939964E-10    1.405850E-11    1.738395E-13    1.705157E-15    1.189632E-17   -2.793264E-20   -4.438343E-21
        -1.617002E-22
  20    -1.083237E-23   -3.542140E-22   -8.313662E-21    1.436766E-19    4.690468E-17    5.525136E-15    4.899409E-13    3.414500E-11    1.839132E-09    7.430127E-08
         2.177481E-06    4.492768E-05    6.409911E-04    6.334843E-03    4.209774E-02    0.138670        4.209774E-02    6.334843E-03    6.409911E-04    4.492768E-05
         2.177481E-06    7.430127E-08    1.839132E-09    3.414500E-11    4.899408E-13    5.525120E-15    4.690314E-17    1.435653E-19   -8.319010E-21   -3.544168E-22
        -1.083901E-23
  21    -5.254748E-25   -1.957131E-23   -6.226129E-22   -1.127530E-20    6.842004E-19    1.204846E-16    1.221343E-14    9.434228E-13    5.659265E-11    2.589661E-09
         8.815154E-08    2.177481E-06    3.832259E-05    4.715270E-04    3.791977E-03    1.451579E-02    3.791977E-03    4.715270E-04    3.832259E-05    2.177481E-06
         8.815154E-08    2.589661E-09    5.659265E-11    9.434226E-13    1.221339E-14    1.204799E-16    6.838085E-19   -1.129552E-20   -6.234076E-22   -1.959710E-23
        -5.262138E-25
  22    -1.865013E-26   -7.859856E-25   -2.977240E-23   -9.064164E-22   -1.098135E-20    1.631136E-18    2.188731E-16    1.931980E-14    1.295882E-12    6.668836E-11
         2.589661E-09    7.430127E-08    1.539718E-06    2.227612E-05    2.059863E-04    8.836315E-04    2.059863E-04    2.227612E-05    1.539718E-06    7.430127E-08
         2.589661E-09    6.668836E-11    1.295882E-12    1.931973E-14    2.188630E-16    1.630168E-18   -1.103495E-20   -9.086126E-22   -2.984501E-23   -7.880227E-25
        -1.870145E-26
  23    -4.879686E-28   -2.340797E-26   -1.029986E-24   -3.917904E-23   -1.141598E-21   -7.474940E-21    2.584731E-18    2.925240E-16    2.244937E-14    1.295882E-12
         5.659265E-11    1.839132E-09    4.334762E-08    7.094779E-07    7.295468E-06    3.423159E-05    7.295468E-06    7.094779E-07    4.334762E-08    1.839132E-09
         5.659265E-11    1.295882E-12    2.244928E-14    2.925087E-16    2.583082E-18   -7.576597E-21   -1.146021E-21   -3.933012E-23   -1.034260E-24   -2.351231E-26
        -4.902822E-28
  24    -9.424866E-30   -5.204867E-28   -2.669684E-26   -1.209836E-24   -4.613910E-23   -1.288341E-21   -4.015045E-21    2.980700E-18    2.925246E-16    1.931980E-14
         9.434228E-13    3.414500E-11    8.939964E-10    1.613660E-08    1.805214E-07    9.113298E-07    1.805214E-07    1.613660E-08    8.939964E-10    3.414500E-11
         9.434226E-13    1.931973E-14    2.925087E-16    2.978696E-18   -4.156364E-21   -1.295053E-21   -4.638118E-23   -1.216854E-24   -2.686751E-26   -5.241049E-28
        -9.495180E-30
  25    -1.333497E-31   -8.617800E-30   -5.232883E-28   -2.831523E-26   -1.313822E-24   -4.975683E-23   -1.336770E-21   -4.010294E-21    2.584854E-18    2.188743E-16
         1.221344E-14    4.899409E-13    1.405850E-11    2.753532E-10    3.302868E-09    1.773062E-08    3.302868E-09    2.753532E-10    1.405850E-11    4.899408E-13
         1.221339E-14    2.188630E-16    2.583082E-18   -4.156364E-21   -1.344620E-21   -5.006493E-23   -1.323195E-24   -2.854624E-26   -5.280886E-28   -8.705269E-30
        -1.348235E-31
  26    -1.354719E-33   -1.049818E-31   -7.748601E-30   -5.111602E-28   -2.886401E-26   -1.346807E-24   -4.974821E-23   -1.287925E-21   -7.464450E-21    1.631281E-18
         1.204854E-16    5.525139E-15    1.738396E-13    3.668121E-12    4.676638E-11    2.647660E-10    4.676638E-11    3.668121E-12    1.738395E-13    5.525120E-15
         1.204799E-16    1.630168E-18   -7.576597E-21   -1.295053E-21   -5.006493E-23   -1.357271E-24   -2.913284E-26   -5.167423E-28   -7.846054E-30   -1.064771E-31
        -1.376162E-33
  27    -9.505698E-36   -9.189381E-34   -8.611857E-32   -7.179616E-30   -5.043631E-28   -2.885763E-26   -1.313334E-24   -4.611829E-23   -1.141038E-21   -1.097207E-20
         6.842861E-19    4.690503E-17    1.705164E-15    3.913855E-14    5.301435E-13    3.152064E-12    5.301434E-13    3.913853E-14    1.705157E-15    4.690314E-17
         6.838085E-19   -1.103495E-20   -1.146021E-21   -4.638118E-23   -1.323195E-24   -2.913284E-26   -5.102867E-28   -7.281301E-30   -8.756723E-32   -9.370120E-34
        -9.719599E-36
  28    -4.281617E-38   -5.551306E-36   -7.128812E-34   -7.942960E-32   -7.177519E-30   -5.109112E-28   -2.829839E-26   -1.209089E-24   -3.915698E-23   -9.059964E-22
        -1.127052E-20    1.437057E-19    1.189679E-17    3.291947E-16    4.868572E-15    3.054715E-14    4.868570E-15    3.291933E-16    1.189632E-17    1.435653E-19
        -1.129552E-20   -9.086126E-22   -3.933012E-23   -1.216854E-24   -2.854624E-26   -5.167423E-28   -7.281301E-30   -8.086284E-32   -7.288087E-34   -5.703513E-36
        -4.422566E-38
  29    -1.062347E-40   -2.171141E-38   -4.412519E-36   -7.125852E-34   -8.606163E-32   -7.742440E-30   -5.228502E-28   -2.667564E-26   -1.029290E-24   -2.975744E-23
        -6.224143E-22   -8.312181E-21   -2.790382E-20    1.506009E-18    3.274257E-17    2.319077E-16    3.274244E-17    1.505924E-18   -2.793264E-20   -8.319010E-21
        -6.234076E-22   -2.984501E-23   -1.034260E-24   -2.686751E-26   -5.280886E-28   -7.846054E-30   -8.756723E-32   -7.288087E-34   -4.544588E-36   -2.258065E-38
        -1.118939E-40
  30    -9.310450E-44   -5.116758E-41   -2.169562E-38   -5.545766E-36   -9.179130E-34   -1.048618E-31   -8.608376E-30   -5.199804E-28   -2.338948E-26   -7.855396E-25
        -1.956459E-23   -3.541559E-22   -4.437070E-21   -3.310136E-20   -5.664307E-20    5.862739E-19   -5.665005E-20   -3.310548E-20   -4.438343E-21   -3.544168E-22
        -1.959710E-23   -7.880227E-25   -2.351231E-26   -5.241049E-28   -8.705269E-30   -1.064771E-31   -9.370120E-34   -5.703513E-36   -2.258065E-38   -5.450937E-41
        -1.045473E-43
  31      0.00000       -9.284583E-44   -1.060199E-40   -4.273943E-38   -9.489939E-36   -1.352653E-33   -1.331683E-31   -9.414013E-30   -4.875281E-28   -1.863831E-26
        -5.252753E-25   -1.083042E-23   -1.616530E-22   -1.707635E-21   -1.161526E-20   -4.707526E-20   -1.161555E-20   -1.707800E-21   -1.617002E-22   -1.083901E-23
        -5.262138E-25   -1.870145E-26   -4.902822E-28   -9.495180E-30   -1.348235E-31   -1.376162E-33   -9.719599E-36   -4.422566E-38   -1.118939E-40   -1.045473E-43
          0.00000    

 CONCENTRATION WILL BE SAVED ON UNIT 1030 AT END OF TIME STEP   98, STRESS PERIOD    2


  MASS BUDGET FOR ENTIRE MODEL AT END OF TIME STEP   98, STRESS PERIOD   2
  ---------------------------------------------------------------------------------------------------

     CUMULATIVE MASS      M       RATES FOR THIS TIME STEP      M/T          PACKAGE NAME    
     ------------------                 ------------------------                     ----------------

           IN:                                      IN:
           ---                                      ---
     STORAGE-AQUEOUS =  7608886205.1546       STORAGE-AQUEOUS =      355267.4065     MST                              
                 WEL =  7884000000.0000                   WEL =           0.0000     SSM_WEL-1                        
                 CHD =           0.0000                   CHD =           0.0000     SSM_CHD-1                        

            TOTAL IN = 15492886205.1546              TOTAL IN =      355267.4065

          OUT:                                     OUT:
          ----                                     ----
     STORAGE-AQUEOUS =  7888719274.2884       STORAGE-AQUEOUS =           2.1524     MST                              
                 WEL =  7604166930.8664                   WEL =      355265.2542     SSM_WEL-1                        
                 CHD =       7.5562E-18                   CHD =           0.0000     SSM_CHD-1                        

           TOTAL OUT = 15492886205.1548             TOTAL OUT =      355267.4065

            IN - OUT =      -1.9836E-04              IN - OUT =      -9.5926E-08

 PERCENT DISCREPANCY =          -0.00     PERCENT DISCREPANCY =          -0.00




         TIME SUMMARY AT END OF TIME STEP   98 IN STRESS PERIOD    2
                    SECONDS     MINUTES      HOURS       DAYS        YEARS
                    -----------------------------------------------------------
   TIME STEP LENGTH 2.16991E+06  36165.      602.75      25.115     6.87602E-02
 STRESS PERIOD TIME 2.12651E+08 3.54418E+06  59070.      2461.2      6.7385    
         TOTAL TIME 2.91491E+08 4.85818E+06  80970.      3373.7      9.2368    


end timestep


start timestep kper="2" kstp="99" mode="normal"

 UBDSV1 SAVING  STORAGE-AQUEOUS ON UNIT   1029 AT TIME STEP     99, STRESS PERIOD      2
 UBDSV1 SAVING     FLOW-JA-FACE ON UNIT   1029 AT TIME STEP     99, STRESS PERIOD      2
 UBDSV06 SAVING  SOURCE-SINK MIX IN MODEL GWT_P06-MF6      PACKAGE GWT_P06-MF6     CONNECTED TO MODEL GWT_P06-MF6      PACKAGE SSM              ON UNIT   1029 AT TIME STEP     99, STRESS PERIOD      2
1
  CONCENTRATION IN LAYER   1 AT END OF TIME STEP  99 IN STRESS PERIOD    2
  ---------------------------------------------------------------------------

                1               2               3               4               5               6               7               8               9              10
               11              12              13              14              15              16              17              18              19              20
               21              22              23              24              25              26              27              28              29              30
               31
 ................................................................................................................................................................................................................................................................................................................................................................................................................................................................................................................
   1      0.00000       -1.162850E-43   -1.201574E-40   -4.689856E-38   -1.022869E-35   -1.439797E-33   -1.403476E-31   -9.838574E-30   -5.057987E-28   -1.921305E-26
        -5.384482E-25   -1.104690E-23   -1.640522E-22   -1.721170E-21   -1.158260E-20   -4.632627E-20   -1.158234E-20   -1.721032E-21   -1.640147E-22   -1.104018E-23
        -5.376973E-25   -1.916073E-26   -5.034312E-28   -9.766344E-30   -1.388276E-31   -1.417596E-33   -1.000635E-35   -4.542742E-38   -1.142248E-40   -1.042300E-43
          0.00000    
   2    -1.162850E-43   -5.871867E-41   -2.396296E-38   -6.001822E-36   -9.801104E-34   -1.108218E-31   -9.019989E-30   -5.407668E-28   -2.416074E-26   -8.064177E-25
        -1.996237E-23   -3.587005E-22   -4.435365E-21   -3.188645E-20   -3.465753E-20    7.265643E-19   -3.465130E-20   -3.188297E-20   -4.434350E-21   -3.584956E-22
        -1.993624E-23   -8.043471E-25   -2.405431E-26   -5.370625E-28   -8.930110E-30   -1.092796E-31   -9.614026E-34   -5.843693E-36   -2.305637E-38   -5.521771E-41
        -1.039560E-43
   3    -1.201574E-40   -2.396296E-38   -4.782229E-36   -7.621866E-34   -9.112058E-32   -8.128552E-30   -5.448610E-28   -2.761006E-26   -1.058389E-24   -3.038130E-23
        -6.287863E-22   -8.171757E-21   -1.923665E-20    1.717688E-18    3.561666E-17    2.487125E-16    3.561678E-17    1.717760E-18   -1.921351E-20   -8.166374E-21
        -6.279839E-22   -3.030774E-23   -1.054043E-24   -2.743590E-26   -5.399450E-28   -8.028402E-30   -8.962668E-32   -7.457041E-34   -4.645052E-36   -2.303983E-38
        -1.139985E-40
   4    -4.689856E-38   -6.001822E-36   -7.621866E-34   -8.413531E-32   -7.542426E-30   -5.330980E-28   -2.933341E-26   -1.245070E-24   -4.000346E-23   -9.123049E-22
        -1.069946E-20    1.788806E-19    1.303202E-17    3.536016E-16    5.177386E-15    3.225522E-14    5.177388E-15    3.536029E-16    1.303241E-17    1.789922E-19
        -1.067913E-20   -9.100872E-22   -3.985035E-23   -1.237932E-24   -2.909761E-26   -5.273806E-28   -7.437924E-30   -8.265735E-32   -7.453969E-34   -5.837918E-36
        -4.534701E-38
   5    -1.022869E-35   -9.801104E-34   -9.112058E-32   -7.542426E-30   -5.264101E-28   -2.993413E-26   -1.353664E-24   -4.713709E-23   -1.144944E-21   -9.593001E-21
         7.805130E-19    5.084258E-17    1.822290E-15    4.145825E-14    5.575840E-13    3.294711E-12    5.575840E-13    4.145827E-14    1.822296E-15    5.084411E-17
         7.809053E-19   -9.539098E-21   -1.140477E-21   -4.689170E-23   -1.344129E-24   -2.965968E-26   -5.203426E-28   -7.435764E-30   -8.956782E-32   -9.603387E-34
        -9.989915E-36
   6    -1.439797E-33   -1.108218E-31   -8.128552E-30   -5.330980E-28   -2.993413E-26   -1.388432E-24   -5.085534E-23   -1.288605E-21   -5.114679E-21    1.813476E-18
         1.299713E-16    5.887046E-15    1.836215E-13    3.846089E-12    4.871594E-11    2.741628E-10    4.871594E-11    3.846089E-12    1.836216E-13    5.887063E-15
         1.299759E-16    1.814440E-18   -5.012461E-21   -1.281826E-21   -5.054298E-23   -1.377785E-24   -2.965316E-26   -5.271252E-28   -8.022060E-30   -1.091557E-31
        -1.415452E-33
   7    -1.403476E-31   -9.019989E-30   -5.448610E-28   -2.933341E-26   -1.353664E-24   -5.085534E-23   -1.335819E-21   -9.915703E-22    2.848728E-18    2.355265E-16
         1.298797E-14    5.163912E-13    1.470212E-11    2.859355E-10    3.407973E-09    1.818791E-08    3.407973E-09    2.859355E-10    1.470212E-11    5.163914E-13
         1.298801E-14    2.355366E-16    2.850368E-18   -8.494951E-22   -1.327891E-21   -5.053424E-23   -1.343632E-24   -2.908040E-26   -5.394958E-28   -8.920412E-30
        -1.386402E-31
   8    -9.838574E-30   -5.407668E-28   -2.761006E-26   -1.245070E-24   -4.713709E-23   -1.288605E-21   -9.915703E-22    3.280922E-18    3.144209E-16    2.052139E-14
         9.928534E-13    3.563464E-11    9.258347E-10    1.659434E-08    1.844736E-07    9.259363E-07    1.844736E-07    1.659434E-08    9.258347E-10    3.563464E-11
         9.928536E-13    2.052146E-14    3.144360E-16    3.282914E-18   -8.447185E-22   -1.281406E-21   -4.687059E-23   -1.237172E-24   -2.741425E-26   -5.365436E-28
        -9.755182E-30
   9    -5.057987E-28   -2.416074E-26   -1.058389E-24   -4.000346E-23   -1.144944E-21   -5.114679E-21    2.848728E-18    3.144209E-16    2.383654E-14    1.362713E-12
         5.898236E-11    1.900704E-09    4.444949E-08    7.223957E-07    7.382158E-06    3.444486E-05    7.382158E-06    7.223957E-07    4.444949E-08    1.900704E-09
         5.898236E-11    1.362713E-12    2.383662E-14    3.144366E-16    2.850490E-18   -5.001914E-21   -1.139911E-21   -3.982798E-23   -1.053335E-24   -2.403544E-26
        -5.029801E-28
  10    -1.921305E-26   -8.064177E-25   -3.038130E-23   -9.123049E-22   -9.593001E-21    1.813476E-18    2.355265E-16    2.052139E-14    1.362713E-12    6.947205E-11
         2.673350E-09    7.603819E-08    1.563096E-06    2.245424E-05    2.063716E-04    8.805526E-04    2.063716E-04    2.245424E-05    1.563096E-06    7.603819E-08
         2.673350E-09    6.947205E-11    1.362713E-12    2.052146E-14    2.355378E-16    1.814585E-18   -9.529763E-21   -9.096632E-22   -3.029257E-23   -8.038937E-25
        -1.914867E-26
  11    -5.384482E-25   -1.996237E-23   -6.287863E-22   -1.069946E-20    7.805130E-19    1.299713E-16    1.298797E-14    9.928534E-13    5.898236E-11    2.673350E-09
         9.014761E-08    2.206711E-06    3.851581E-05    4.705343E-04    3.761900E-03    1.432938E-02    3.761900E-03    4.705343E-04    3.851581E-05    2.206711E-06
         9.014761E-08    2.673350E-09    5.898236E-11    9.928536E-13    1.298801E-14    1.299767E-16    7.809910E-19   -1.067432E-20   -6.277834E-22   -1.992944E-23
        -5.374947E-25
  12    -1.104690E-23   -3.587005E-22   -8.171757E-21    1.788806E-19    5.084258E-17    5.887046E-15    5.163912E-13    3.563464E-11    1.900704E-09    7.603819E-08
         2.206711E-06    4.510336E-05    6.379945E-04    6.260607E-03    4.138017E-02    0.135724        4.138017E-02    6.260607E-03    6.379945E-04    4.510336E-05
         2.206711E-06    7.603819E-08    1.900704E-09    3.563464E-11    5.163914E-13    5.887065E-15    5.084446E-17    1.790213E-19   -8.164885E-21   -3.584370E-22
        -1.103820E-23
  13    -1.640522E-22   -4.435365E-21   -1.923665E-20    1.303202E-17    1.822290E-15    1.836215E-13    1.470212E-11    9.258347E-10    4.444949E-08    1.563096E-06
         3.851581E-05    6.379945E-04    6.949947E-03    5.074483E-02    0.257664        0.691232        0.257664        5.074483E-02    6.949947E-03    6.379945E-04
         3.851581E-05    1.563096E-06    4.444949E-08    9.258347E-10    1.470212E-11    1.836216E-13    1.822297E-15    1.303250E-17   -1.920772E-20   -4.434083E-21
        -1.640045E-22
  14    -1.721170E-21   -3.188645E-20    1.717688E-18    3.536016E-16    4.145825E-14    3.846089E-12    2.859355E-10    1.659434E-08    7.223957E-07    2.245424E-05
         4.705343E-04    6.260607E-03    5.074483E-02    0.257281        0.916200         1.88466        0.916200        0.257281        5.074483E-02    6.260607E-03
         4.705343E-04    2.245424E-05    7.223957E-07    1.659434E-08    2.859355E-10    3.846089E-12    4.145827E-14    3.536031E-16    1.717773E-18   -3.188229E-20
        -1.721005E-21
  15    -1.158260E-20   -3.465753E-20    3.561666E-17    5.177386E-15    5.575840E-13    4.871594E-11    3.407973E-09    1.844736E-07    7.382158E-06    2.063716E-04
         3.761900E-03    4.138017E-02    0.257664        0.916200         2.31009         3.10841         2.31009        0.916200        0.257664        4.138017E-02
         3.761900E-03    2.063716E-04    7.382158E-06    1.844736E-07    3.407973E-09    4.871594E-11    5.575840E-13    5.177388E-15    3.561680E-17   -3.465053E-20
        -1.158231E-20
  16    -4.632627E-20    7.265643E-19    2.487125E-16    3.225522E-14    3.294711E-12    2.741628E-10    1.818791E-08    9.259363E-07    3.444486E-05    8.805526E-04
         1.432938E-02    0.135724        0.691232         1.88466         3.10841         3.97450         3.10841         1.88466        0.691232        0.135724    
         1.432938E-02    8.805526E-04    3.444486E-05    9.259363E-07    1.818791E-08    2.741628E-10    3.294711E-12    3.225522E-14    2.487125E-16    7.265643E-19
        -4.632627E-20
  17    -1.158234E-20   -3.465130E-20    3.561678E-17    5.177388E-15    5.575840E-13    4.871594E-11    3.407973E-09    1.844736E-07    7.382158E-06    2.063716E-04
         3.761900E-03    4.138017E-02    0.257664        0.916200         2.31009         3.10841         2.31009        0.916200        0.257664        4.138017E-02
         3.761900E-03    2.063716E-04    7.382158E-06    1.844736E-07    3.407973E-09    4.871594E-11    5.575840E-13    5.177386E-15    3.561666E-17   -3.465753E-20
        -1.158260E-20
  18    -1.721032E-21   -3.188297E-20    1.717760E-18    3.536029E-16    4.145827E-14    3.846089E-12    2.859355E-10    1.659434E-08    7.223957E-07    2.245424E-05
         4.705343E-04    6.260607E-03    5.074483E-02    0.257281        0.916200         1.88466        0.916200        0.257281        5.074483E-02    6.260607E-03
         4.705343E-04    2.245424E-05    7.223957E-07    1.659434E-08    2.859355E-10    3.846089E-12    4.145825E-14    3.536017E-16    1.717688E-18   -3.188645E-20
        -1.721170E-21
  19    -1.640147E-22   -4.434350E-21   -1.921351E-20    1.303241E-17    1.822296E-15    1.836216E-13    1.470212E-11    9.258347E-10    4.444949E-08    1.563096E-06
         3.851581E-05    6.379945E-04    6.949947E-03    5.074483E-02    0.257664        0.691232        0.257664        5.074483E-02    6.949947E-03    6.379945E-04
         3.851581E-05    1.563096E-06    4.444949E-08    9.258347E-10    1.470212E-11    1.836215E-13    1.822290E-15    1.303202E-17   -1.923665E-20   -4.435365E-21
        -1.640522E-22
  20    -1.104018E-23   -3.584956E-22   -8.166374E-21    1.789922E-19    5.084411E-17    5.887063E-15    5.163914E-13    3.563464E-11    1.900704E-09    7.603819E-08
         2.206711E-06    4.510336E-05    6.379945E-04    6.260607E-03    4.138017E-02    0.135724        4.138017E-02    6.260607E-03    6.379945E-04    4.510336E-05
         2.206711E-06    7.603819E-08    1.900704E-09    3.563464E-11    5.163912E-13    5.887046E-15    5.084258E-17    1.788806E-19   -8.171757E-21   -3.587005E-22
        -1.104690E-23
  21    -5.376973E-25   -1.993624E-23   -6.279839E-22   -1.067913E-20    7.809053E-19    1.299759E-16    1.298801E-14    9.928536E-13    5.898236E-11    2.673350E-09
         9.014761E-08    2.206711E-06    3.851581E-05    4.705343E-04    3.761900E-03    1.432938E-02    3.761900E-03    4.705343E-04    3.851581E-05    2.206711E-06
         9.014761E-08    2.673350E-09    5.898236E-11    9.928534E-13    1.298797E-14    1.299713E-16    7.805130E-19   -1.069946E-20   -6.287863E-22   -1.996237E-23
        -5.384482E-25
  22    -1.916073E-26   -8.043471E-25   -3.030774E-23   -9.100872E-22   -9.539098E-21    1.814440E-18    2.355366E-16    2.052146E-14    1.362713E-12    6.947205E-11
         2.673350E-09    7.603819E-08    1.563096E-06    2.245424E-05    2.063716E-04    8.805526E-04    2.063716E-04    2.245424E-05    1.563096E-06    7.603819E-08
         2.673350E-09    6.947205E-11    1.362713E-12    2.052139E-14    2.355265E-16    1.813476E-18   -9.593001E-21   -9.123049E-22   -3.038130E-23   -8.064177E-25
        -1.921305E-26
  23    -5.034312E-28   -2.405431E-26   -1.054043E-24   -3.985035E-23   -1.140477E-21   -5.012461E-21    2.850368E-18    3.144360E-16    2.383662E-14    1.362713E-12
         5.898236E-11    1.900704E-09    4.444949E-08    7.223957E-07    7.382158E-06    3.444486E-05    7.382158E-06    7.223957E-07    4.444949E-08    1.900704E-09
         5.898236E-11    1.362713E-12    2.383654E-14    3.144209E-16    2.848728E-18   -5.114679E-21   -1.144944E-21   -4.000346E-23   -1.058389E-24   -2.416074E-26
        -5.057987E-28
  24    -9.766344E-30   -5.370625E-28   -2.743590E-26   -1.237932E-24   -4.689170E-23   -1.281826E-21   -8.494949E-22    3.282914E-18    3.144366E-16    2.052146E-14
         9.928536E-13    3.563464E-11    9.258347E-10    1.659434E-08    1.844736E-07    9.259363E-07    1.844736E-07    1.659434E-08    9.258347E-10    3.563464E-11
         9.928534E-13    2.052139E-14    3.144209E-16    3.280922E-18   -9.915703E-22   -1.288605E-21   -4.713709E-23   -1.245070E-24   -2.761006E-26   -5.407668E-28
        -9.838574E-30
  25    -1.388276E-31   -8.930110E-30   -5.399450E-28   -2.909761E-26   -1.344129E-24   -5.054298E-23   -1.327891E-21   -8.447182E-22    2.850490E-18    2.355378E-16
         1.298801E-14    5.163914E-13    1.470212E-11    2.859355E-10    3.407973E-09    1.818791E-08    3.407973E-09    2.859355E-10    1.470212E-11    5.163912E-13
         1.298797E-14    2.355265E-16    2.848728E-18   -9.915703E-22   -1.335819E-21   -5.085534E-23   -1.353664E-24   -2.933341E-26   -5.448610E-28   -9.019989E-30
        -1.403476E-31
  26    -1.417596E-33   -1.092796E-31   -8.028402E-30   -5.273806E-28   -2.965968E-26   -1.377785E-24   -5.053424E-23   -1.281406E-21   -5.001914E-21    1.814585E-18
         1.299767E-16    5.887065E-15    1.836216E-13    3.846089E-12    4.871594E-11    2.741628E-10    4.871594E-11    3.846089E-12    1.836215E-13    5.887046E-15
         1.299713E-16    1.813476E-18   -5.114679E-21   -1.288605E-21   -5.085534E-23   -1.388432E-24   -2.993413E-26   -5.330980E-28   -8.128552E-30   -1.108218E-31
        -1.439797E-33
  27    -1.000635E-35   -9.614026E-34   -8.962668E-32   -7.437924E-30   -5.203426E-28   -2.965316E-26   -1.343632E-24   -4.687059E-23   -1.139911E-21   -9.529763E-21
         7.809910E-19    5.084446E-17    1.822297E-15    4.145827E-14    5.575840E-13    3.294711E-12    5.575840E-13    4.145825E-14    1.822290E-15    5.084258E-17
         7.805130E-19   -9.593001E-21   -1.144944E-21   -4.713709E-23   -1.353664E-24   -2.993413E-26   -5.264101E-28   -7.542426E-30   -9.112058E-32   -9.801104E-34
        -1.022869E-35
  28    -4.542742E-38   -5.843693E-36   -7.457041E-34   -8.265735E-32   -7.435764E-30   -5.271252E-28   -2.908040E-26   -1.237172E-24   -3.982798E-23   -9.096632E-22
        -1.067432E-20    1.790213E-19    1.303250E-17    3.536031E-16    5.177388E-15    3.225522E-14    5.177386E-15    3.536017E-16    1.303202E-17    1.788806E-19
        -1.069946E-20   -9.123049E-22   -4.000346E-23   -1.245070E-24   -2.933341E-26   -5.330980E-28   -7.542426E-30   -8.413531E-32   -7.621866E-34   -6.001822E-36
        -4.689856E-38
  29    -1.142248E-40   -2.305637E-38   -4.645052E-36   -7.453969E-34   -8.956782E-32   -8.022060E-30   -5.394958E-28   -2.741425E-26   -1.053335E-24   -3.029257E-23
        -6.277834E-22   -8.164885E-21   -1.920772E-20    1.717773E-18    3.561680E-17    2.487125E-16    3.561666E-17    1.717688E-18   -1.923665E-20   -8.171757E-21
        -6.287863E-22   -3.038130E-23   -1.058389E-24   -2.761006E-26   -5.448610E-28   -8.128552E-30   -9.112058E-32   -7.621866E-34   -4.782229E-36   -2.396296E-38
        -1.201574E-40
  30    -1.042300E-43   -5.521771E-41   -2.303983E-38   -5.837918E-36   -9.603387E-34   -1.091557E-31   -8.920412E-30   -5.365436E-28   -2.403544E-26   -8.038937E-25
        -1.992944E-23   -3.584370E-22   -4.434083E-21   -3.188229E-20   -3.465053E-20    7.265643E-19   -3.465753E-20   -3.188645E-20   -4.435365E-21   -3.587005E-22
        -1.996237E-23   -8.064177E-25   -2.416074E-26   -5.407668E-28   -9.019989E-30   -1.108218E-31   -9.801104E-34   -6.001822E-36   -2.396296E-38   -5.871867E-41
        -1.162850E-43
  31      0.00000       -1.039560E-43   -1.139985E-40   -4.534701E-38   -9.989915E-36   -1.415452E-33   -1.386402E-31   -9.755182E-30   -5.029801E-28   -1.914867E-26
        -5.374947E-25   -1.103820E-23   -1.640045E-22   -1.721005E-21   -1.158231E-20   -4.632627E-20   -1.158260E-20   -1.721170E-21   -1.640522E-22   -1.104690E-23
        -5.384482E-25   -1.921305E-26   -5.057987E-28   -9.838574E-30   -1.403476E-31   -1.439797E-33   -1.022869E-35   -4.689856E-38   -1.201574E-40   -1.162850E-43
          0.00000    

 CONCENTRATION WILL BE SAVED ON UNIT 1030 AT END OF TIME STEP   99, STRESS PERIOD    2


  MASS BUDGET FOR ENTIRE MODEL AT END OF TIME STEP   99, STRESS PERIOD   2
  ---------------------------------------------------------------------------------------------------

     CUMULATIVE MASS      M       RATES FOR THIS TIME STEP      M/T          PACKAGE NAME    
     ------------------                 ------------------------                     ----------------

           IN:                                      IN:
           ---                                      ---
     STORAGE-AQUEOUS =  7617510563.8930       STORAGE-AQUEOUS =      343399.1242     MST                              
                 WEL =  7884000000.0000                   WEL =           0.0000     SSM_WEL-1                        
                 CHD =           0.0000                   CHD =           0.0000     SSM_CHD-1                        

            TOTAL IN = 15501510563.8930              TOTAL IN =      343399.1242

          OUT:                                     OUT:
          ----                                     ----
     STORAGE-AQUEOUS =  7888719325.0669       STORAGE-AQUEOUS =           2.0219     MST                              
                 WEL =  7612791238.8263                   WEL =      343397.1023     SSM_WEL-1                        
                 CHD =       7.5562E-18                   CHD =           0.0000     SSM_CHD-1                        

           TOTAL OUT = 15501510563.8932             TOTAL OUT =      343399.1242

            IN - OUT =      -2.0027E-04              IN - OUT =      -9.1910E-08

 PERCENT DISCREPANCY =          -0.00     PERCENT DISCREPANCY =          -0.00




         TIME SUMMARY AT END OF TIME STEP   99 IN STRESS PERIOD    2
                    SECONDS     MINUTES      HOURS       DAYS        YEARS
                    -----------------------------------------------------------
   TIME STEP LENGTH 2.16991E+06  36165.      602.75      25.115     6.87602E-02
 STRESS PERIOD TIME 2.14821E+08 3.58035E+06  59672.      2486.4      6.8073    
         TOTAL TIME 2.93661E+08 4.89435E+06  81572.      3398.9      9.3056    


end timestep


start timestep kper="2" kstp="100" mode="normal"

 UBDSV1 SAVING  STORAGE-AQUEOUS ON UNIT   1029 AT TIME STEP    100, STRESS PERIOD      2
 UBDSV1 SAVING     FLOW-JA-FACE ON UNIT   1029 AT TIME STEP    100, STRESS PERIOD      2
 UBDSV06 SAVING  SOURCE-SINK MIX IN MODEL GWT_P06-MF6      PACKAGE GWT_P06-MF6     CONNECTED TO MODEL GWT_P06-MF6      PACKAGE SSM              ON UNIT   1029 AT TIME STEP    100, STRESS PERIOD      2
1
  CONCENTRATION IN LAYER   1 AT END OF TIME STEP 100 IN STRESS PERIOD    2
  ---------------------------------------------------------------------------

                1               2               3               4               5               6               7               8               9              10
               11              12              13              14              15              16              17              18              19              20
               21              22              23              24              25              26              27              28              29              30
               31
 ................................................................................................................................................................................................................................................................................................................................................................................................................................................................................................................
   1      0.00000       -1.288869E-43   -1.289162E-40   -4.970980E-38   -1.076098E-35   -1.505997E-33   -1.460679E-31   -1.019262E-29   -5.217293E-28   -1.973608E-26
        -5.508964E-25   -1.125693E-23   -1.663909E-22   -1.733646E-21   -1.153548E-20   -4.549435E-20   -1.153522E-20   -1.733507E-21   -1.663530E-22   -1.125012E-23
        -5.501336E-25   -1.968274E-26   -5.193068E-28   -1.011843E-29   -1.445006E-31   -1.483015E-33   -1.052991E-35   -4.817460E-38   -1.226984E-40   -1.161905E-43
          0.00000    
   2    -1.288869E-43   -6.318223E-41   -2.541669E-38   -6.313657E-36   -1.024938E-33   -1.153205E-31   -9.344491E-30   -5.578752E-28   -2.482363E-26   -8.251176E-25
        -2.032981E-23   -3.628589E-22   -4.426366E-21   -3.053135E-20   -1.093390E-20    8.756256E-19   -1.092763E-20   -3.052785E-20   -4.425343E-21   -3.626520E-22
        -2.030334E-23   -8.230132E-25   -2.471507E-26   -5.540832E-28   -9.252146E-30   -1.137303E-31   -1.005577E-33   -6.149401E-36   -2.447131E-38   -5.951531E-41
        -1.159003E-43
   3    -1.289162E-40   -2.541669E-38   -5.030619E-36   -7.968984E-34   -9.479950E-32   -8.419817E-30   -5.620829E-28   -2.836908E-26   -1.082892E-24   -3.091768E-23
        -6.336987E-22   -7.999582E-21   -9.779994E-21    1.943858E-18    3.865856E-17    2.663999E-16    3.865868E-17    1.943930E-18   -9.756754E-21   -7.994163E-21
        -6.328885E-22   -3.084315E-23   -1.078473E-24   -2.819137E-26   -5.570489E-28   -8.316907E-30   -9.325912E-32   -7.798439E-34   -4.888158E-36   -2.445399E-38
        -1.224600E-40
   4    -4.970980E-38   -6.313657E-36   -7.968984E-34   -8.752320E-32   -7.811636E-30   -5.498912E-28   -3.013789E-26   -1.273693E-24   -4.067219E-23   -9.148571E-22
        -1.003192E-20    2.169978E-19    1.424123E-17    3.793808E-16    5.501254E-15    3.403508E-14    5.501257E-15    3.793820E-16    1.424162E-17    2.171096E-19
        -1.001147E-20   -9.126180E-22   -4.051702E-23   -1.266434E-24   -2.989722E-26   -5.440357E-28   -7.704250E-30   -8.599929E-32   -7.795251E-34   -6.143382E-36
        -4.809037E-38
   5    -1.076098E-35   -1.024938E-33   -9.479950E-32   -7.811636E-30   -5.429641E-28   -3.075292E-26   -1.384548E-24   -4.788265E-23   -1.141821E-21   -8.004748E-21
         8.844910E-19    5.502683E-17    1.945679E-15    4.388370E-14    5.860800E-13    3.441901E-12    5.860801E-13    4.388372E-14    1.945685E-15    5.502835E-17
         8.848837E-19   -7.950541E-21   -1.137310E-21   -4.763392E-23   -1.374848E-24   -3.047278E-26   -5.367498E-28   -7.702027E-30   -9.319830E-32   -1.004473E-33
        -1.051278E-35
   6    -1.505997E-33   -1.153205E-31   -8.419817E-30   -5.498912E-28   -3.075292E-26   -1.420006E-24   -5.163147E-23   -1.279315E-21   -2.424186E-21    2.009933E-18
         1.400340E-16    6.267464E-15    1.938216E-13    4.030291E-12    5.071986E-11    2.837585E-10    5.071986E-11    4.030291E-12    1.938217E-13    6.267480E-15
         1.400386E-16    2.010893E-18   -2.321418E-21   -1.272469E-21   -5.131482E-23   -1.409175E-24   -3.046612E-26   -5.437738E-28   -8.310378E-30   -1.136022E-31
        -1.480790E-33
   7    -1.460679E-31   -9.344491E-30   -5.620829E-28   -3.013789E-26   -1.384548E-24   -5.163147E-23   -1.323859E-21    2.458660E-21    3.133010E-18    2.531713E-16
         1.380073E-14    5.439087E-13    1.536628E-11    2.967717E-10    3.514822E-09    1.864953E-08    3.514822E-09    2.967717E-10    1.536628E-11    5.439088E-13
         1.380077E-14    2.531812E-16    3.134639E-18    2.601475E-21   -1.315853E-21   -5.130595E-23   -1.374342E-24   -2.987964E-26   -5.565884E-28   -9.242167E-30
        -1.443071E-31
   8    -1.019262E-29   -5.578752E-28   -2.836908E-26   -1.273693E-24   -4.788265E-23   -1.279315E-21    2.458660E-21    3.604207E-18    3.376083E-16    2.178094E-14
         1.044191E-12    3.716792E-11    9.583227E-10    1.705755E-08    1.884405E-07    9.404707E-07    1.884405E-07    1.705755E-08    9.583227E-10    3.716792E-11
         1.044191E-12    2.178100E-14    3.376233E-16    3.606187E-18    2.606277E-21   -1.272044E-21   -4.761252E-23   -1.265661E-24   -2.816926E-26   -5.535515E-28
        -1.010695E-29
   9    -5.217293E-28   -2.482363E-26   -1.082892E-24   -4.067219E-23   -1.141821E-21   -2.424186E-21    3.133010E-18    3.376083E-16    2.529008E-14    1.432058E-12
         6.143787E-11    1.963355E-09    4.555971E-08    7.352801E-07    7.467606E-06    3.465088E-05    7.467606E-06    7.352801E-07    4.555971E-08    1.963355E-09
         6.143787E-11    1.432058E-12    2.529017E-14    3.376239E-16    3.134761E-18   -2.310815E-21   -1.136739E-21   -4.049435E-23   -1.077754E-24   -2.469581E-26
        -5.188449E-28
  10    -1.973608E-26   -8.251176E-25   -3.091768E-23   -9.148571E-22   -8.004748E-21    2.009933E-18    2.531713E-16    2.178094E-14    1.432058E-12    7.233067E-11
         2.758368E-09    7.778251E-08    1.586265E-06    2.262732E-05    2.067114E-04    8.773376E-04    2.067114E-04    2.262732E-05    1.586265E-06    7.778251E-08
         2.758368E-09    7.233067E-11    1.432058E-12    2.178101E-14    2.531824E-16    2.011037E-18   -7.941157E-21   -9.121898E-22   -3.082778E-23   -8.225524E-25
        -1.967045E-26
  11    -5.508964E-25   -2.032981E-23   -6.336987E-22   -1.003192E-20    8.844910E-19    1.400340E-16    1.380073E-14    1.044191E-12    6.143787E-11    2.758368E-09
         9.214967E-08    2.235548E-06    3.869936E-05    4.694485E-04    3.731540E-03    1.414416E-02    3.731540E-03    4.694485E-04    3.869936E-05    2.235548E-06
         9.214967E-08    2.758368E-09    6.143787E-11    1.044191E-12    1.380077E-14    1.400394E-16    8.849694E-19   -1.000663E-20   -6.326862E-22   -2.029645E-23
        -5.499277E-25
  12    -1.125693E-23   -3.628589E-22   -7.999582E-21    2.169978E-19    5.502683E-17    6.267464E-15    5.439087E-13    3.716792E-11    1.963355E-09    7.778251E-08
         2.235548E-06    4.526744E-05    6.348902E-04    6.186523E-03    4.067265E-02    0.132840        4.067265E-02    6.186523E-03    6.348902E-04    4.526744E-05
         2.235548E-06    7.778251E-08    1.963355E-09    3.716792E-11    5.439088E-13    6.267483E-15    5.502870E-17    2.171388E-19   -7.992665E-21   -3.625928E-22
        -1.124812E-23
  13    -1.663909E-22   -4.426366E-21   -9.779994E-21    1.424123E-17    1.945679E-15    1.938216E-13    1.536628E-11    9.583227E-10    4.555971E-08    1.586265E-06
         3.869936E-05    6.348902E-04    6.856486E-03    4.972289E-02    0.251334        0.672156        0.251334        4.972289E-02    6.856486E-03    6.348902E-04
         3.869936E-05    1.586265E-06    4.555971E-08    9.583227E-10    1.536628E-11    1.938217E-13    1.945686E-15    1.424170E-17   -9.750953E-21   -4.425074E-21
        -1.663427E-22
  14    -1.733646E-21   -3.053135E-20    1.943858E-18    3.793808E-16    4.388370E-14    4.030291E-12    2.967717E-10    1.705755E-08    7.352801E-07    2.262732E-05
         4.694485E-04    6.186523E-03    4.972289E-02    0.250532        0.889097         1.82574        0.889097        0.250532        4.972289E-02    6.186523E-03
         4.694485E-04    2.262732E-05    7.352801E-07    1.705755E-08    2.967717E-10    4.030291E-12    4.388372E-14    3.793822E-16    1.943943E-18   -3.052717E-20
        -1.733479E-21
  15    -1.153548E-20   -1.093390E-20    3.865856E-17    5.501254E-15    5.860800E-13    5.071986E-11    3.514822E-09    1.884405E-07    7.467606E-06    2.067114E-04
         3.731540E-03    4.067265E-02    0.251334        0.889097         2.23578         3.00669         2.23578        0.889097        0.251334        4.067265E-02
         3.731540E-03    2.067114E-04    7.467606E-06    1.884405E-07    3.514822E-09    5.071986E-11    5.860801E-13    5.501257E-15    3.865870E-17   -1.092686E-20
        -1.153518E-20
  16    -4.549435E-20    8.756256E-19    2.663999E-16    3.403508E-14    3.441901E-12    2.837585E-10    1.864953E-08    9.404707E-07    3.465088E-05    8.773376E-04
         1.414416E-02    0.132840        0.672156         1.82574         3.00669         3.84205         3.00669         1.82574        0.672156        0.132840    
         1.414416E-02    8.773376E-04    3.465088E-05    9.404707E-07    1.864953E-08    2.837585E-10    3.441901E-12    3.403508E-14    2.663999E-16    8.756256E-19
        -4.549435E-20
  17    -1.153522E-20   -1.092763E-20    3.865868E-17    5.501257E-15    5.860801E-13    5.071986E-11    3.514822E-09    1.884405E-07    7.467606E-06    2.067114E-04
         3.731540E-03    4.067265E-02    0.251334        0.889097         2.23578         3.00669         2.23578        0.889097        0.251334        4.067265E-02
         3.731540E-03    2.067114E-04    7.467606E-06    1.884405E-07    3.514822E-09    5.071986E-11    5.860800E-13    5.501254E-15    3.865856E-17   -1.093389E-20
        -1.153548E-20
  18    -1.733507E-21   -3.052785E-20    1.943930E-18    3.793820E-16    4.388372E-14    4.030291E-12    2.967717E-10    1.705755E-08    7.352801E-07    2.262732E-05
         4.694485E-04    6.186523E-03    4.972289E-02    0.250532        0.889097         1.82574        0.889097        0.250532        4.972289E-02    6.186523E-03
         4.694485E-04    2.262732E-05    7.352801E-07    1.705755E-08    2.967717E-10    4.030291E-12    4.388370E-14    3.793808E-16    1.943858E-18   -3.053135E-20
        -1.733646E-21
  19    -1.663530E-22   -4.425343E-21   -9.756754E-21    1.424162E-17    1.945685E-15    1.938217E-13    1.536628E-11    9.583227E-10    4.555971E-08    1.586265E-06
         3.869936E-05    6.348902E-04    6.856486E-03    4.972289E-02    0.251334        0.672156        0.251334        4.972289E-02    6.856486E-03    6.348902E-04
         3.869936E-05    1.586265E-06    4.555971E-08    9.583227E-10    1.536628E-11    1.938216E-13    1.945679E-15    1.424123E-17   -9.779993E-21   -4.426366E-21
        -1.663909E-22
  20    -1.125012E-23   -3.626520E-22   -7.994163E-21    2.171096E-19    5.502835E-17    6.267480E-15    5.439088E-13    3.716792E-11    1.963355E-09    7.778251E-08
         2.235548E-06    4.526744E-05    6.348902E-04    6.186523E-03    4.067265E-02    0.132840        4.067265E-02    6.186523E-03    6.348902E-04    4.526744E-05
         2.235548E-06    7.778251E-08    1.963355E-09    3.716792E-11    5.439087E-13    6.267464E-15    5.502683E-17    2.169978E-19   -7.999582E-21   -3.628589E-22
        -1.125693E-23
  21    -5.501336E-25   -2.030334E-23   -6.328885E-22   -1.001147E-20    8.848837E-19    1.400386E-16    1.380077E-14    1.044191E-12    6.143787E-11    2.758368E-09
         9.214967E-08    2.235548E-06    3.869936E-05    4.694485E-04    3.731540E-03    1.414416E-02    3.731540E-03    4.694485E-04    3.869936E-05    2.235548E-06
         9.214967E-08    2.758368E-09    6.143787E-11    1.044191E-12    1.380073E-14    1.400340E-16    8.844910E-19   -1.003192E-20   -6.336986E-22   -2.032981E-23
        -5.508964E-25
  22    -1.968274E-26   -8.230132E-25   -3.084315E-23   -9.126180E-22   -7.950541E-21    2.010893E-18    2.531812E-16    2.178100E-14    1.432058E-12    7.233067E-11
         2.758368E-09    7.778251E-08    1.586265E-06    2.262732E-05    2.067114E-04    8.773376E-04    2.067114E-04    2.262732E-05    1.586265E-06    7.778251E-08
         2.758368E-09    7.233067E-11    1.432058E-12    2.178094E-14    2.531713E-16    2.009933E-18   -8.004748E-21   -9.148571E-22   -3.091768E-23   -8.251176E-25
        -1.973608E-26
  23    -5.193068E-28   -2.471507E-26   -1.078473E-24   -4.051702E-23   -1.137310E-21   -2.321418E-21    3.134639E-18    3.376233E-16    2.529017E-14    1.432058E-12
         6.143787E-11    1.963355E-09    4.555971E-08    7.352801E-07    7.467606E-06    3.465088E-05    7.467606E-06    7.352801E-07    4.555971E-08    1.963355E-09
         6.143787E-11    1.432058E-12    2.529008E-14    3.376083E-16    3.133010E-18   -2.424186E-21   -1.141821E-21   -4.067219E-23   -1.082892E-24   -2.482363E-26
        -5.217293E-28
  24    -1.011843E-29   -5.540832E-28   -2.819137E-26   -1.266434E-24   -4.763392E-23   -1.272469E-21    2.601476E-21    3.606187E-18    3.376239E-16    2.178101E-14
         1.044191E-12    3.716792E-11    9.583227E-10    1.705755E-08    1.884405E-07    9.404707E-07    1.884405E-07    1.705755E-08    9.583227E-10    3.716792E-11
         1.044191E-12    2.178094E-14    3.376083E-16    3.604207E-18    2.458660E-21   -1.279315E-21   -4.788265E-23   -1.273693E-24   -2.836908E-26   -5.578752E-28
        -1.019262E-29
  25    -1.445006E-31   -9.252146E-30   -5.570489E-28   -2.989722E-26   -1.374848E-24   -5.131482E-23   -1.315853E-21    2.606277E-21    3.134761E-18    2.531824E-16
         1.380077E-14    5.439088E-13    1.536628E-11    2.967717E-10    3.514822E-09    1.864953E-08    3.514822E-09    2.967717E-10    1.536628E-11    5.439087E-13
         1.380073E-14    2.531713E-16    3.133010E-18    2.458660E-21   -1.323859E-21   -5.163147E-23   -1.384548E-24   -3.013789E-26   -5.620829E-28   -9.344491E-30
        -1.460679E-31
  26    -1.483015E-33   -1.137303E-31   -8.316907E-30   -5.440357E-28   -3.047278E-26   -1.409175E-24   -5.130595E-23   -1.272044E-21   -2.310815E-21    2.011037E-18
         1.400394E-16    6.267483E-15    1.938217E-13    4.030291E-12    5.071986E-11    2.837585E-10    5.071986E-11    4.030291E-12    1.938216E-13    6.267464E-15
         1.400340E-16    2.009933E-18   -2.424186E-21   -1.279315E-21   -5.163147E-23   -1.420006E-24   -3.075292E-26   -5.498912E-28   -8.419817E-30   -1.153205E-31
        -1.505997E-33
  27    -1.052991E-35   -1.005577E-33   -9.325912E-32   -7.704250E-30   -5.367498E-28   -3.046612E-26   -1.374342E-24   -4.761252E-23   -1.136739E-21   -7.941157E-21
         8.849694E-19    5.502870E-17    1.945686E-15    4.388372E-14    5.860801E-13    3.441901E-12    5.860800E-13    4.388370E-14    1.945679E-15    5.502683E-17
         8.844910E-19   -8.004748E-21   -1.141821E-21   -4.788265E-23   -1.384548E-24   -3.075292E-26   -5.429641E-28   -7.811636E-30   -9.479950E-32   -1.024938E-33
        -1.076098E-35
  28    -4.817460E-38   -6.149401E-36   -7.798439E-34   -8.599929E-32   -7.702027E-30   -5.437738E-28   -2.987964E-26   -1.265661E-24   -4.049435E-23   -9.121898E-22
        -1.000663E-20    2.171388E-19    1.424170E-17    3.793822E-16    5.501257E-15    3.403508E-14    5.501254E-15    3.793808E-16    1.424123E-17    2.169978E-19
        -1.003192E-20   -9.148571E-22   -4.067219E-23   -1.273693E-24   -3.013789E-26   -5.498912E-28   -7.811636E-30   -8.752320E-32   -7.968984E-34   -6.313657E-36
        -4.970980E-38
  29    -1.226984E-40   -2.447131E-38   -4.888158E-36   -7.795251E-34   -9.319830E-32   -8.310378E-30   -5.565884E-28   -2.816926E-26   -1.077754E-24   -3.082778E-23
        -6.326862E-22   -7.992665E-21   -9.750953E-21    1.943943E-18    3.865870E-17    2.663999E-16    3.865856E-17    1.943858E-18   -9.779993E-21   -7.999582E-21
        -6.336986E-22   -3.091768E-23   -1.082892E-24   -2.836908E-26   -5.620829E-28   -8.419817E-30   -9.479950E-32   -7.968984E-34   -5.030619E-36   -2.541669E-38
        -1.289162E-40
  30    -1.161905E-43   -5.951531E-41   -2.445399E-38   -6.143382E-36   -1.004473E-33   -1.136022E-31   -9.242167E-30   -5.535515E-28   -2.469581E-26   -8.225524E-25
        -2.029645E-23   -3.625928E-22   -4.425074E-21   -3.052717E-20   -1.092686E-20    8.756256E-19   -1.093389E-20   -3.053135E-20   -4.426366E-21   -3.628589E-22
        -2.032981E-23   -8.251176E-25   -2.482363E-26   -5.578752E-28   -9.344491E-30   -1.153205E-31   -1.024938E-33   -6.313657E-36   -2.541669E-38   -6.318223E-41
        -1.288869E-43
  31      0.00000       -1.159003E-43   -1.224600E-40   -4.809037E-38   -1.051278E-35   -1.480790E-33   -1.443071E-31   -1.010695E-29   -5.188449E-28   -1.967045E-26
        -5.499277E-25   -1.124812E-23   -1.663427E-22   -1.733479E-21   -1.153518E-20   -4.549435E-20   -1.153548E-20   -1.733646E-21   -1.663909E-22   -1.125693E-23
        -5.508964E-25   -1.973608E-26   -5.217293E-28   -1.019262E-29   -1.460679E-31   -1.505997E-33   -1.076098E-35   -4.970980E-38   -1.289162E-40   -1.288869E-43
          0.00000    

 CONCENTRATION WILL BE SAVED ON UNIT 1030 AT END OF TIME STEP  100, STRESS PERIOD    2


  MASS BUDGET FOR ENTIRE MODEL AT END OF TIME STEP  100, STRESS PERIOD   2
  ---------------------------------------------------------------------------------------------------

     CUMULATIVE MASS      M       RATES FOR THIS TIME STEP      M/T          PACKAGE NAME    
     ------------------                 ------------------------                     ----------------

           IN:                                      IN:
           ---                                      ---
     STORAGE-AQUEOUS =  7625847513.6882       STORAGE-AQUEOUS =      331955.2613     MST                              
                 WEL =  7884000000.0000                   WEL =           0.0000     SSM_WEL-1                        
                 CHD =           0.0000                   CHD =           0.0000     SSM_CHD-1                        

            TOTAL IN = 15509847513.6882              TOTAL IN =      331955.2613

          OUT:                                     OUT:
          ----                                     ----
     STORAGE-AQUEOUS =  7888719372.6003       STORAGE-AQUEOUS =           1.8927     MST                              
                 WEL =  7621128141.0882                   WEL =      331953.3686     SSM_WEL-1                        
                 CHD =       7.5562E-18                   CHD =           0.0000     SSM_CHD-1                        

           TOTAL OUT = 15509847513.6884             TOTAL OUT =      331955.2613

            IN - OUT =      -2.0218E-04              IN - OUT =      -8.8708E-08

 PERCENT DISCREPANCY =          -0.00     PERCENT DISCREPANCY =          -0.00




         TIME SUMMARY AT END OF TIME STEP  100 IN STRESS PERIOD    2
                    SECONDS     MINUTES      HOURS       DAYS        YEARS
                    -----------------------------------------------------------
   TIME STEP LENGTH 2.16991E+06  36165.      602.75      25.115     6.87602E-02
 STRESS PERIOD TIME 2.16991E+08 3.61651E+06  60275.      2511.5      6.8760    
         TOTAL TIME 2.95831E+08 4.93051E+06  82175.      3424.0      9.3743    


end timestep


start timestep kper="2" kstp="101" mode="normal"

 UBDSV1 SAVING  STORAGE-AQUEOUS ON UNIT   1029 AT TIME STEP    101, STRESS PERIOD      2
 UBDSV1 SAVING     FLOW-JA-FACE ON UNIT   1029 AT TIME STEP    101, STRESS PERIOD      2
 UBDSV06 SAVING  SOURCE-SINK MIX IN MODEL GWT_P06-MF6      PACKAGE GWT_P06-MF6     CONNECTED TO MODEL GWT_P06-MF6      PACKAGE SSM              ON UNIT   1029 AT TIME STEP    101, STRESS PERIOD      2
1
  CONCENTRATION IN LAYER   1 AT END OF TIME STEP 101 IN STRESS PERIOD    2
  ---------------------------------------------------------------------------

                1               2               3               4               5               6               7               8               9              10
               11              12              13              14              15              16              17              18              19              20
               21              22              23              24              25              26              27              28              29              30
               31
 ................................................................................................................................................................................................................................................................................................................................................................................................................................................................................................................
   1      0.00000       -1.424044E-43   -1.381957E-40   -5.266560E-38   -1.131741E-35   -1.574852E-33   -1.519905E-31   -1.055760E-29   -5.380829E-28   -2.027072E-26
        -5.635591E-25   -1.146899E-23   -1.687121E-22   -1.745142E-21   -1.147315E-20   -4.457461E-20   -1.147289E-20   -1.745001E-21   -1.686738E-22   -1.146210E-23
        -5.627841E-25   -2.021634E-26   -5.356043E-28   -1.048141E-29   -1.503747E-31   -1.551066E-33   -1.107729E-35   -5.106387E-38   -1.316804E-40   -1.290362E-43
          0.00000    
   2    -1.424044E-43   -6.791305E-41   -2.694505E-38   -6.639553E-36   -1.071556E-33   -1.199780E-31   -9.679029E-30   -5.754396E-28   -2.550117E-26   -8.441212E-25
        -2.069908E-23   -3.668753E-22   -4.410855E-21   -2.903132E-20    1.461918E-20    1.033891E-18    1.462547E-20   -2.902780E-20   -4.409824E-21   -3.666664E-22
        -2.067227E-23   -8.419827E-25   -2.539046E-26   -5.715581E-28   -9.584161E-30   -1.183384E-31   -1.051521E-33   -6.468958E-36   -2.595939E-38   -6.407311E-41
        -1.287289E-43
   3    -1.381957E-40   -2.694505E-38   -5.290182E-36   -8.329904E-34   -9.860779E-32   -8.720076E-30   -5.797638E-28   -2.914477E-26   -1.107766E-24   -3.145331E-23
        -6.380951E-22   -7.800599E-21    4.847852E-22    2.185206E-18    4.187855E-17    2.849987E-16    4.187867E-17    2.185278E-18    5.081189E-22   -7.795145E-21
        -6.372772E-22   -3.137781E-23   -1.103273E-24   -2.896346E-26   -5.746096E-28   -8.614342E-30   -9.701968E-32   -8.153463E-34   -5.142256E-36   -2.594126E-38
        -1.314295E-40
   4    -5.266560E-38   -6.639553E-36   -8.329904E-34   -9.103000E-32   -8.089141E-30   -5.671308E-28   -3.095987E-26   -1.302715E-24   -4.133477E-23   -9.161621E-22
        -9.287728E-21    2.580855E-19    1.552768E-17    4.065892E-16    5.840705E-15    3.588874E-14    5.840707E-15    4.065904E-16    1.552806E-17    2.581975E-19
        -9.267153E-21   -9.139014E-22   -4.117753E-23   -1.295333E-24   -3.071426E-26   -5.611346E-28   -7.978804E-30   -8.945891E-32   -8.150156E-34   -6.462686E-36
        -5.097564E-38
   5    -1.131741E-35   -1.071556E-33   -9.860779E-32   -8.089141E-30   -5.599579E-28   -3.158942E-26   -1.415831E-24   -4.861562E-23   -1.136475E-21   -6.260002E-21
         9.961669E-19    5.946775E-17    2.075572E-15    4.641821E-14    6.156565E-13    3.593708E-12    6.156565E-13    4.641823E-14    2.075577E-15    5.946926E-17
         9.965600E-19   -6.205495E-21   -1.131920E-21   -4.836352E-23   -1.405965E-24   -3.130349E-26   -5.535938E-28   -7.976515E-30   -9.695684E-32   -1.050376E-33
        -1.105944E-35
   6    -1.574852E-33   -1.199780E-31   -8.720076E-30   -5.671308E-28   -3.158942E-26   -1.451978E-24   -5.239064E-23   -1.266945E-21    5.103922E-22    2.220278E-18
         1.506946E-16    6.667058E-15    2.044516E-13    4.220849E-12    5.277872E-11    2.935532E-10    5.277872E-11    4.220849E-12    2.044517E-13    6.667075E-15
         1.506991E-16    2.221234E-18    6.136992E-22   -1.260032E-21   -5.206967E-23   -1.440960E-24   -3.129668E-26   -5.608661E-28   -8.607623E-30   -1.182061E-31
        -1.548758E-33
   7    -1.519905E-31   -9.679029E-30   -5.797638E-28   -3.095987E-26   -1.415831E-24   -5.239064E-23   -1.308479E-21    6.213467E-21    3.436952E-18    2.718413E-16
         1.465303E-14    5.725199E-13    1.605127E-11    3.078628E-10    3.623398E-09    1.911534E-08    3.623398E-09    3.078628E-10    1.605127E-11    5.725200E-13
         1.465306E-14    2.718512E-16    3.438572E-18    6.357006E-21   -1.300393E-21   -5.206068E-23   -1.405450E-24   -3.069630E-26   -5.741375E-28   -9.573895E-30
        -1.501748E-31
   8    -1.055760E-29   -5.754396E-28   -2.914477E-26   -1.302715E-24   -4.861562E-23   -1.266945E-21    6.213467E-21    3.949704E-18    3.621274E-16    2.310032E-14
         1.097478E-12    3.874531E-11    9.914585E-10    1.752610E-08    1.924206E-07    9.549281E-07    1.924206E-07    1.752610E-08    9.914585E-10    3.874531E-11
         1.097478E-12    2.310038E-14    3.621423E-16    3.951672E-18    6.361831E-21   -1.259603E-21   -4.834182E-23   -1.294545E-24   -2.894088E-26   -5.710133E-28
        -1.046960E-29
   9    -5.380829E-28   -2.550117E-26   -1.107766E-24   -4.133477E-23   -1.136475E-21    5.103922E-22    3.436952E-18    3.621274E-16    2.681212E-14    1.503970E-12
         6.395971E-11    2.027075E-09    4.667788E-08    7.481262E-07    7.551788E-06    3.484965E-05    7.551788E-06    7.481262E-07    4.667788E-08    2.027075E-09
         6.395971E-11    1.503970E-12    2.681220E-14    3.621429E-16    3.438693E-18    6.243566E-22   -1.131344E-21   -4.115455E-23   -1.102542E-24   -2.537080E-26
        -5.351313E-28
  10    -2.027072E-26   -8.441212E-25   -3.145331E-23   -9.161621E-22   -6.260002E-21    2.220278E-18    2.718413E-16    2.310032E-14    1.503970E-12    7.526473E-11
         2.844696E-09    7.953351E-08    1.609217E-06    2.279533E-05    2.070064E-04    8.739909E-04    2.070064E-04    2.279533E-05    1.609217E-06    7.953351E-08
         2.844696E-09    7.526473E-11    1.503970E-12    2.310039E-14    2.718524E-16    2.221378E-18   -6.196061E-21   -9.134692E-22   -3.136224E-23   -8.415143E-25
        -2.020381E-26
  11    -5.635591E-25   -2.069908E-23   -6.380951E-22   -9.287728E-21    9.961669E-19    1.506946E-16    1.465303E-14    1.097478E-12    6.395971E-11    2.844696E-09
         9.415683E-08    2.263984E-06    3.887331E-05    4.682722E-04    3.700919E-03    1.396018E-02    3.700919E-03    4.682722E-04    3.887331E-05    2.263984E-06
         9.415683E-08    2.844696E-09    6.395971E-11    1.097478E-12    1.465307E-14    1.507000E-16    9.966457E-19   -9.262289E-21   -6.370730E-22   -2.066530E-23
        -5.625750E-25
  12    -1.146899E-23   -3.668753E-22   -7.800599E-21    2.580855E-19    5.946775E-17    6.667058E-15    5.725199E-13    3.874531E-11    2.027075E-09    7.953351E-08
         2.263984E-06    4.542001E-05    6.316826E-04    6.112623E-03    3.997513E-02    0.130018        3.997513E-02    6.112623E-03    6.316826E-04    4.542001E-05
         2.263984E-06    7.953351E-08    2.027075E-09    3.874531E-11    5.725200E-13    6.667077E-15    5.946961E-17    2.582267E-19   -7.793639E-21   -3.666066E-22
        -1.146007E-23
  13    -1.687121E-22   -4.410855E-21    4.847852E-22    1.552768E-17    2.075572E-15    2.044516E-13    1.605127E-11    9.914585E-10    4.667788E-08    1.609217E-06
         3.887331E-05    6.316826E-04    6.763571E-03    4.872006E-02    0.245166        0.653646        0.245166        4.872006E-02    6.763571E-03    6.316826E-04
         3.887331E-05    1.609217E-06    4.667788E-08    9.914585E-10    1.605127E-11    2.044517E-13    2.075578E-15    1.552815E-17    5.139352E-22   -4.409553E-21
        -1.686634E-22
  14    -1.745142E-21   -2.903132E-20    2.185206E-18    4.065892E-16    4.641821E-14    4.220849E-12    3.078628E-10    1.752610E-08    7.481262E-07    2.279533E-05
         4.682722E-04    6.112623E-03    4.872006E-02    0.243969        0.862856         1.76882        0.862856        0.243969        4.872006E-02    6.112623E-03
         4.682722E-04    2.279533E-05    7.481262E-07    1.752610E-08    3.078628E-10    4.220849E-12    4.641824E-14    4.065906E-16    2.185291E-18   -2.902712E-20
        -1.744973E-21
  15    -1.147315E-20    1.461918E-20    4.187855E-17    5.840705E-15    6.156565E-13    5.277872E-11    3.623398E-09    1.924206E-07    7.551788E-06    2.070064E-04
         3.700919E-03    3.997513E-02    0.245166        0.862856         2.16403         2.90853         2.16403        0.862856        0.245166        3.997513E-02
         3.700919E-03    2.070064E-04    7.551788E-06    1.924206E-07    3.623398E-09    5.277872E-11    6.156565E-13    5.840708E-15    4.187868E-17    1.462625E-20
        -1.147286E-20
  16    -4.457461E-20    1.033891E-18    2.849987E-16    3.588874E-14    3.593708E-12    2.935532E-10    1.911534E-08    9.549281E-07    3.484965E-05    8.739909E-04
         1.396018E-02    0.130018        0.653646         1.76882         2.90853         3.71433         2.90853         1.76882        0.653646        0.130018    
         1.396018E-02    8.739909E-04    3.484965E-05    9.549281E-07    1.911534E-08    2.935532E-10    3.593708E-12    3.588874E-14    2.849987E-16    1.033891E-18
        -4.457461E-20
  17    -1.147289E-20    1.462547E-20    4.187867E-17    5.840707E-15    6.156565E-13    5.277872E-11    3.623398E-09    1.924206E-07    7.551788E-06    2.070064E-04
         3.700919E-03    3.997513E-02    0.245166        0.862856         2.16403         2.90853         2.16403        0.862856        0.245166        3.997513E-02
         3.700919E-03    2.070064E-04    7.551788E-06    1.924206E-07    3.623398E-09    5.277872E-11    6.156565E-13    5.840705E-15    4.187855E-17    1.461918E-20
        -1.147315E-20
  18    -1.745001E-21   -2.902780E-20    2.185278E-18    4.065904E-16    4.641823E-14    4.220849E-12    3.078628E-10    1.752610E-08    7.481262E-07    2.279533E-05
         4.682722E-04    6.112623E-03    4.872006E-02    0.243969        0.862856         1.76882        0.862856        0.243969        4.872006E-02    6.112623E-03
         4.682722E-04    2.279533E-05    7.481262E-07    1.752610E-08    3.078628E-10    4.220849E-12    4.641821E-14    4.065892E-16    2.185206E-18   -2.903132E-20
        -1.745142E-21
  19    -1.686738E-22   -4.409824E-21    5.081189E-22    1.552806E-17    2.075577E-15    2.044517E-13    1.605127E-11    9.914585E-10    4.667788E-08    1.609217E-06
         3.887331E-05    6.316826E-04    6.763571E-03    4.872006E-02    0.245166        0.653646        0.245166        4.872006E-02    6.763571E-03    6.316826E-04
         3.887331E-05    1.609217E-06    4.667788E-08    9.914585E-10    1.605127E-11    2.044516E-13    2.075572E-15    1.552768E-17    4.847869E-22   -4.410855E-21
        -1.687121E-22
  20    -1.146210E-23   -3.666664E-22   -7.795145E-21    2.581975E-19    5.946926E-17    6.667075E-15    5.725200E-13    3.874531E-11    2.027075E-09    7.953351E-08
         2.263984E-06    4.542001E-05    6.316826E-04    6.112623E-03    3.997513E-02    0.130018        3.997513E-02    6.112623E-03    6.316826E-04    4.542001E-05
         2.263984E-06    7.953351E-08    2.027075E-09    3.874531E-11    5.725199E-13    6.667058E-15    5.946775E-17    2.580855E-19   -7.800599E-21   -3.668753E-22
        -1.146899E-23
  21    -5.627841E-25   -2.067227E-23   -6.372772E-22   -9.267153E-21    9.965600E-19    1.506991E-16    1.465306E-14    1.097478E-12    6.395971E-11    2.844696E-09
         9.415683E-08    2.263984E-06    3.887331E-05    4.682722E-04    3.700919E-03    1.396018E-02    3.700919E-03    4.682722E-04    3.887331E-05    2.263984E-06
         9.415683E-08    2.844696E-09    6.395971E-11    1.097478E-12    1.465303E-14    1.506946E-16    9.961669E-19   -9.287728E-21   -6.380951E-22   -2.069908E-23
        -5.635591E-25
  22    -2.021634E-26   -8.419827E-25   -3.137781E-23   -9.139014E-22   -6.205495E-21    2.221234E-18    2.718512E-16    2.310038E-14    1.503970E-12    7.526473E-11
         2.844696E-09    7.953351E-08    1.609217E-06    2.279533E-05    2.070064E-04    8.739909E-04    2.070064E-04    2.279533E-05    1.609217E-06    7.953351E-08
         2.844696E-09    7.526473E-11    1.503970E-12    2.310032E-14    2.718413E-16    2.220278E-18   -6.260002E-21   -9.161621E-22   -3.145331E-23   -8.441212E-25
        -2.027072E-26
  23    -5.356043E-28   -2.539046E-26   -1.103273E-24   -4.117753E-23   -1.131920E-21    6.136992E-22    3.438572E-18    3.621423E-16    2.681220E-14    1.503970E-12
         6.395971E-11    2.027075E-09    4.667788E-08    7.481262E-07    7.551788E-06    3.484965E-05    7.551788E-06    7.481262E-07    4.667788E-08    2.027075E-09
         6.395971E-11    1.503970E-12    2.681212E-14    3.621274E-16    3.436952E-18    5.103923E-22   -1.136475E-21   -4.133477E-23   -1.107766E-24   -2.550117E-26
        -5.380829E-28
  24    -1.048141E-29   -5.715581E-28   -2.896346E-26   -1.295333E-24   -4.836352E-23   -1.260032E-21    6.357006E-21    3.951673E-18    3.621429E-16    2.310039E-14
         1.097478E-12    3.874531E-11    9.914585E-10    1.752610E-08    1.924206E-07    9.549281E-07    1.924206E-07    1.752610E-08    9.914585E-10    3.874531E-11
         1.097478E-12    2.310032E-14    3.621274E-16    3.949704E-18    6.213467E-21   -1.266945E-21   -4.861562E-23   -1.302715E-24   -2.914477E-26   -5.754396E-28
        -1.055760E-29
  25    -1.503747E-31   -9.584161E-30   -5.746096E-28   -3.071426E-26   -1.405965E-24   -5.206967E-23   -1.300393E-21    6.361832E-21    3.438693E-18    2.718524E-16
         1.465307E-14    5.725200E-13    1.605127E-11    3.078628E-10    3.623398E-09    1.911534E-08    3.623398E-09    3.078628E-10    1.605127E-11    5.725199E-13
         1.465303E-14    2.718413E-16    3.436952E-18    6.213467E-21   -1.308479E-21   -5.239064E-23   -1.415831E-24   -3.095987E-26   -5.797638E-28   -9.679029E-30
        -1.519905E-31
  26    -1.551066E-33   -1.183384E-31   -8.614342E-30   -5.611346E-28   -3.130349E-26   -1.440960E-24   -5.206068E-23   -1.259603E-21    6.243566E-22    2.221378E-18
         1.507000E-16    6.667077E-15    2.044517E-13    4.220849E-12    5.277872E-11    2.935532E-10    5.277872E-11    4.220849E-12    2.044516E-13    6.667058E-15
         1.506946E-16    2.220278E-18    5.103923E-22   -1.266945E-21   -5.239064E-23   -1.451978E-24   -3.158942E-26   -5.671308E-28   -8.720076E-30   -1.199780E-31
        -1.574852E-33
  27    -1.107729E-35   -1.051521E-33   -9.701968E-32   -7.978804E-30   -5.535938E-28   -3.129668E-26   -1.405450E-24   -4.834182E-23   -1.131344E-21   -6.196061E-21
         9.966457E-19    5.946961E-17    2.075578E-15    4.641824E-14    6.156565E-13    3.593708E-12    6.156565E-13    4.641821E-14    2.075572E-15    5.946775E-17
         9.961669E-19   -6.260002E-21   -1.136475E-21   -4.861562E-23   -1.415831E-24   -3.158942E-26   -5.599579E-28   -8.089141E-30   -9.860779E-32   -1.071556E-33
        -1.131741E-35
  28    -5.106387E-38   -6.468958E-36   -8.153463E-34   -8.945891E-32   -7.976515E-30   -5.608661E-28   -3.069630E-26   -1.294545E-24   -4.115455E-23   -9.134692E-22
        -9.262289E-21    2.582267E-19    1.552815E-17    4.065906E-16    5.840708E-15    3.588874E-14    5.840705E-15    4.065892E-16    1.552768E-17    2.580855E-19
        -9.287728E-21   -9.161621E-22   -4.133477E-23   -1.302715E-24   -3.095987E-26   -5.671308E-28   -8.089141E-30   -9.103000E-32   -8.329904E-34   -6.639553E-36
        -5.266560E-38
  29    -1.316804E-40   -2.595939E-38   -5.142256E-36   -8.150156E-34   -9.695684E-32   -8.607623E-30   -5.741375E-28   -2.894088E-26   -1.102542E-24   -3.136224E-23
        -6.370730E-22   -7.793639E-21    5.139352E-22    2.185291E-18    4.187868E-17    2.849987E-16    4.187855E-17    2.185206E-18    4.847869E-22   -7.800599E-21
        -6.380951E-22   -3.145331E-23   -1.107766E-24   -2.914477E-26   -5.797638E-28   -8.720076E-30   -9.860779E-32   -8.329904E-34   -5.290182E-36   -2.694505E-38
        -1.381957E-40
  30    -1.290362E-43   -6.407311E-41   -2.594126E-38   -6.462686E-36   -1.050376E-33   -1.182061E-31   -9.573895E-30   -5.710133E-28   -2.537080E-26   -8.415143E-25
        -2.066530E-23   -3.666066E-22   -4.409553E-21   -2.902712E-20    1.462625E-20    1.033891E-18    1.461918E-20   -2.903132E-20   -4.410855E-21   -3.668753E-22
        -2.069908E-23   -8.441212E-25   -2.550117E-26   -5.754396E-28   -9.679029E-30   -1.199780E-31   -1.071556E-33   -6.639553E-36   -2.694505E-38   -6.791305E-41
        -1.424044E-43
  31      0.00000       -1.287289E-43   -1.314295E-40   -5.097564E-38   -1.105944E-35   -1.548758E-33   -1.501748E-31   -1.046960E-29   -5.351313E-28   -2.020381E-26
        -5.625750E-25   -1.146007E-23   -1.686634E-22   -1.744973E-21   -1.147286E-20   -4.457461E-20   -1.147315E-20   -1.745142E-21   -1.687121E-22   -1.146899E-23
        -5.635591E-25   -2.027072E-26   -5.380829E-28   -1.055760E-29   -1.519905E-31   -1.574852E-33   -1.131741E-35   -5.266560E-38   -1.381957E-40   -1.424044E-43
          0.00000    

 CONCENTRATION WILL BE SAVED ON UNIT 1030 AT END OF TIME STEP  101, STRESS PERIOD    2


  MASS BUDGET FOR ENTIRE MODEL AT END OF TIME STEP  101, STRESS PERIOD   2
  ---------------------------------------------------------------------------------------------------

     CUMULATIVE MASS      M       RATES FOR THIS TIME STEP      M/T          PACKAGE NAME    
     ------------------                 ------------------------                     ----------------

           IN:                                      IN:
           ---                                      ---
     STORAGE-AQUEOUS =  7633907310.3417       STORAGE-AQUEOUS =      320919.7572     MST                              
                 WEL =  7884000000.0000                   WEL =           0.0000     SSM_WEL-1                        
                 CHD =           0.0000                   CHD =           0.0000     SSM_CHD-1                        

            TOTAL IN = 15517907310.3417              TOTAL IN =      320919.7572

          OUT:                                     OUT:
          ----                                     ----
     STORAGE-AQUEOUS =  7888719416.9219       STORAGE-AQUEOUS =           1.7648     MST                              
                 WEL =  7629187893.4200                   WEL =      320917.9924     SSM_WEL-1                        
                 CHD =       7.5562E-18                   CHD =           0.0000     SSM_CHD-1                        

           TOTAL OUT = 15517907310.3419             TOTAL OUT =      320919.7572

            IN - OUT =      -2.0218E-04              IN - OUT =      -8.4518E-08

 PERCENT DISCREPANCY =          -0.00     PERCENT DISCREPANCY =          -0.00




         TIME SUMMARY AT END OF TIME STEP  101 IN STRESS PERIOD    2
                    SECONDS     MINUTES      HOURS       DAYS        YEARS
                    -----------------------------------------------------------
   TIME STEP LENGTH 2.16991E+06  36165.      602.75      25.115     6.87602E-02
 STRESS PERIOD TIME 2.19161E+08 3.65268E+06  60878.      2536.6      6.9448    
         TOTAL TIME 2.98001E+08 4.96668E+06  82778.      3449.1      9.4431    


end timestep


start timestep kper="2" kstp="102" mode="normal"

 UBDSV1 SAVING  STORAGE-AQUEOUS ON UNIT   1029 AT TIME STEP    102, STRESS PERIOD      2
 UBDSV1 SAVING     FLOW-JA-FACE ON UNIT   1029 AT TIME STEP    102, STRESS PERIOD      2
 UBDSV06 SAVING  SOURCE-SINK MIX IN MODEL GWT_P06-MF6      PACKAGE GWT_P06-MF6     CONNECTED TO MODEL GWT_P06-MF6      PACKAGE SSM              ON UNIT   1029 AT TIME STEP    102, STRESS PERIOD      2
1
  CONCENTRATION IN LAYER   1 AT END OF TIME STEP 102 IN STRESS PERIOD    2
  ---------------------------------------------------------------------------

                1               2               3               4               5               6               7               8               9              10
               11              12              13              14              15              16              17              18              19              20
               21              22              23              24              25              26              27              28              29              30
               31
 ................................................................................................................................................................................................................................................................................................................................................................................................................................................................................................................
   1      0.00000       -1.568916E-43   -1.480223E-40   -5.577243E-38   -1.189891E-35   -1.646456E-33   -1.581215E-31   -1.093380E-29   -5.548682E-28   -2.081713E-26
        -5.764366E-25   -1.168298E-23   -1.710115E-22   -1.755565E-21   -1.139454E-20   -4.356195E-20   -1.139428E-20   -1.755423E-21   -1.709728E-22   -1.167600E-23
        -5.756494E-25   -2.076171E-26   -5.523325E-28   -1.085555E-29   -1.564558E-31   -1.621840E-33   -1.164944E-35   -5.410159E-38   -1.411969E-40   -1.428197E-43
          0.00000    
   2    -1.568916E-43   -7.292472E-41   -2.855136E-38   -6.980062E-36   -1.120025E-33   -1.247991E-31   -1.002386E-29   -5.934694E-28   -2.619357E-26   -8.634267E-25
        -2.106980E-23   -3.707316E-22   -4.388312E-21   -2.737703E-20    4.210431E-20    1.201810E-18    4.211063E-20   -2.737349E-20   -4.387274E-21   -3.705206E-22
        -2.104266E-23   -8.612535E-25   -2.608067E-26   -5.894967E-28   -9.926414E-30   -1.231088E-31   -1.099296E-33   -6.802913E-36   -2.752389E-38   -6.890444E-41
        -1.424944E-43
   3    -1.480223E-40   -2.855136E-38   -5.561357E-36   -8.705105E-34   -1.025494E-31   -9.029563E-30   -5.979131E-28   -2.993733E-26   -1.133003E-24   -3.198729E-23
        -6.419223E-22   -7.572817E-21    1.160747E-20    2.442533E-18    4.528466E-17    3.045439E-16    4.528479E-17    2.442605E-18    1.163090E-20   -7.567327E-21
        -6.410966E-22   -3.191080E-23   -1.128436E-24   -2.975235E-26   -5.926364E-28   -8.920938E-30   -1.009122E-31   -8.522588E-34   -5.407779E-36   -2.750491E-38
        -1.409328E-40
   4    -5.577243E-38   -6.980062E-36   -8.705105E-34   -9.465932E-32   -8.375156E-30   -5.848262E-28   -3.179955E-26   -1.332122E-24   -4.198953E-23   -9.161053E-22
        -8.461414E-21    3.023201E-19    1.689522E-17    4.352870E-16    6.196277E-15    3.781824E-14    6.196280E-15    4.352882E-16    1.689560E-17    3.024324E-19
        -8.440719E-21   -9.138231E-22   -4.183021E-23   -1.324616E-24   -3.154891E-26   -5.786865E-28   -8.261798E-30   -9.303977E-32   -8.519158E-34   -6.796379E-36
        -5.400922E-38
   5    -1.189891E-35   -1.120025E-33   -1.025494E-31   -8.375156E-30   -5.774002E-28   -3.244379E-26   -1.447499E-24   -4.933358E-23   -1.128716E-21   -4.348018E-21
         1.115984E-18    6.417757E-17    2.212223E-15    4.906517E-14    6.463383E-13    3.750204E-12    6.463384E-13    4.906519E-14    2.212228E-15    6.417908E-17
         1.116377E-18   -4.293215E-21   -1.124118E-21   -4.907809E-23   -1.437464E-24   -3.215197E-26   -5.708835E-28   -8.259443E-30   -1.008473E-31   -1.098108E-33
        -1.163084E-35
   6    -1.646456E-33   -1.247991E-31   -9.029563E-30   -5.848262E-28   -3.244379E-26   -1.484329E-24   -5.312996E-23   -1.251243E-21    3.705390E-21    2.445283E-18
         1.619804E-16    7.086529E-15    2.155232E-13    4.417880E-12    5.489305E-11    3.035471E-10    5.489305E-11    4.417880E-12    2.155232E-13    7.086546E-15
         1.619849E-16    2.446236E-18    3.809226E-21   -1.244262E-21   -5.280463E-23   -1.473122E-24   -3.214502E-26   -5.784111E-28   -8.914024E-30   -1.229721E-31
        -1.619446E-33
   7    -1.581215E-31   -1.002386E-29   -5.979131E-28   -3.179955E-26   -1.447499E-24   -5.312996E-23   -1.289399E-21    1.029300E-20    3.761624E-18    2.915822E-16
         1.554621E-14    6.022515E-13    1.675739E-11    3.192098E-10    3.733686E-09    1.958521E-08    3.733686E-09    3.192098E-10    1.675739E-11    6.022516E-13
         1.554625E-14    2.915920E-16    3.763234E-18    1.043724E-20   -1.281234E-21   -5.279551E-23   -1.436940E-24   -3.153057E-26   -5.921525E-28   -9.915853E-30
        -1.562494E-31
   8    -1.093380E-29   -5.934694E-28   -2.993733E-26   -1.332122E-24   -4.933358E-23   -1.251243E-21    1.029300E-20    4.318614E-18    3.880363E-16    2.448150E-14
         1.152757E-12    4.036727E-11    1.025240E-09    1.799986E-08    1.964125E-07    9.693034E-07    1.964125E-07    1.799986E-08    1.025240E-09    4.036727E-11
         1.152757E-12    2.448157E-14    3.880512E-16    4.320571E-18    1.044209E-20   -1.243829E-21   -4.905609E-23   -1.323814E-24   -2.972930E-26   -5.889386E-28
        -1.084342E-29
   9    -5.548682E-28   -2.619357E-26   -1.133003E-24   -4.198953E-23   -1.128716E-21    3.705390E-21    3.761624E-18    3.880363E-16    2.840486E-14    1.578504E-12
         6.654836E-11    2.091852E-09    4.780361E-08    7.609288E-07    7.634682E-06    3.504120E-05    7.634682E-06    7.609288E-07    4.780361E-08    2.091852E-09
         6.654836E-11    1.578504E-12    2.840495E-14    3.880517E-16    3.763354E-18    3.819936E-21   -1.123536E-21   -4.180692E-23   -1.127692E-24   -2.606061E-26
        -5.518484E-28
  10    -2.081713E-26   -8.634267E-25   -3.198729E-23   -9.161053E-22   -4.348018E-21    2.445283E-18    2.915822E-16    2.448150E-14    1.578504E-12    7.827470E-11
         2.932315E-09    8.129047E-08    1.631943E-06    2.295828E-05    2.072572E-04    8.705171E-04    2.072572E-04    2.295828E-05    1.631943E-06    8.129047E-08
         2.932315E-09    7.827470E-11    1.578504E-12    2.448157E-14    2.915932E-16    2.446379E-18   -4.283732E-21   -9.133868E-22   -3.189503E-23   -8.607774E-25
        -2.074893E-26
  11    -5.764366E-25   -2.106980E-23   -6.419223E-22   -8.461414E-21    1.115984E-18    1.619804E-16    1.554621E-14    1.152757E-12    6.654836E-11    2.932315E-09
         9.616825E-08    2.292006E-06    3.903772E-05    4.670080E-04    3.670059E-03    1.377749E-02    3.670059E-03    4.670080E-04    3.903772E-05    2.292006E-06
         9.616825E-08    2.932315E-09    6.654836E-11    1.152757E-12    1.554625E-14    1.619857E-16    1.116463E-18   -8.435829E-21   -6.408906E-22   -2.103559E-23
        -5.754371E-25
  12    -1.168298E-23   -3.707316E-22   -7.572817E-21    3.023201E-19    6.417757E-17    7.086529E-15    6.022515E-13    4.036727E-11    2.091852E-09    8.129047E-08
         2.292006E-06    4.556120E-05    6.283760E-04    6.038938E-03    3.928760E-02    0.127255        3.928760E-02    6.038938E-03    6.283760E-04    4.556120E-05
         2.292006E-06    8.129047E-08    2.091852E-09    4.036727E-11    6.022516E-13    7.086548E-15    6.417942E-17    3.024616E-19   -7.565813E-21   -3.704603E-22
        -1.167395E-23
  13    -1.710115E-22   -4.388312E-21    1.160747E-20    1.689522E-17    2.212223E-15    2.155232E-13    1.675739E-11    1.025240E-09    4.780361E-08    1.631943E-06
         3.903772E-05    6.283760E-04    6.671232E-03    4.773606E-02    0.239156        0.635684        0.239156        4.773606E-02    6.671232E-03    6.283760E-04
         3.903772E-05    1.631943E-06    4.780361E-08    1.025240E-09    1.675739E-11    2.155232E-13    2.212229E-15    1.689569E-17    1.163673E-20   -4.387001E-21
        -1.709623E-22
  14    -1.755565E-21   -2.737703E-20    2.442533E-18    4.352870E-16    4.906517E-14    4.417880E-12    3.192098E-10    1.799986E-08    7.609288E-07    2.295828E-05
         4.670080E-04    6.038938E-03    4.773606E-02    0.237586        0.837447         1.71382        0.837447        0.237586        4.773606E-02    6.038938E-03
         4.670080E-04    2.295828E-05    7.609288E-07    1.799986E-08    3.192098E-10    4.417880E-12    4.906519E-14    4.352884E-16    2.442618E-18   -2.737281E-20
        -1.755395E-21
  15    -1.139454E-20    4.210431E-20    4.528466E-17    6.196277E-15    6.463383E-13    5.489305E-11    3.733686E-09    1.964125E-07    7.634682E-06    2.072572E-04
         3.670059E-03    3.928760E-02    0.239156        0.837447         2.09473         2.81382         2.09473        0.837447        0.239156        3.928760E-02
         3.670059E-03    2.072572E-04    7.634682E-06    1.964125E-07    3.733686E-09    5.489305E-11    6.463384E-13    6.196280E-15    4.528480E-17    4.211142E-20
        -1.139424E-20
  16    -4.356195E-20    1.201810E-18    3.045439E-16    3.781824E-14    3.750204E-12    3.035471E-10    1.958521E-08    9.693034E-07    3.504120E-05    8.705171E-04
         1.377749E-02    0.127255        0.635684         1.71382         2.81382         3.59115         2.81382         1.71382        0.635684        0.127255    
         1.377749E-02    8.705171E-04    3.504120E-05    9.693034E-07    1.958521E-08    3.035471E-10    3.750204E-12    3.781824E-14    3.045439E-16    1.201810E-18
        -4.356195E-20
  17    -1.139428E-20    4.211063E-20    4.528479E-17    6.196280E-15    6.463384E-13    5.489305E-11    3.733686E-09    1.964125E-07    7.634682E-06    2.072572E-04
         3.670059E-03    3.928760E-02    0.239156        0.837447         2.09473         2.81382         2.09473        0.837447        0.239156        3.928760E-02
         3.670059E-03    2.072572E-04    7.634682E-06    1.964125E-07    3.733686E-09    5.489305E-11    6.463383E-13    6.196277E-15    4.528466E-17    4.210432E-20
        -1.139454E-20
  18    -1.755423E-21   -2.737349E-20    2.442605E-18    4.352882E-16    4.906519E-14    4.417880E-12    3.192098E-10    1.799986E-08    7.609288E-07    2.295828E-05
         4.670080E-04    6.038938E-03    4.773606E-02    0.237586        0.837447         1.71382        0.837447        0.237586        4.773606E-02    6.038938E-03
         4.670080E-04    2.295828E-05    7.609288E-07    1.799986E-08    3.192098E-10    4.417880E-12    4.906517E-14    4.352870E-16    2.442533E-18   -2.737703E-20
        -1.755565E-21
  19    -1.709728E-22   -4.387274E-21    1.163090E-20    1.689560E-17    2.212228E-15    2.155232E-13    1.675739E-11    1.025240E-09    4.780361E-08    1.631943E-06
         3.903772E-05    6.283760E-04    6.671232E-03    4.773606E-02    0.239156        0.635684        0.239156        4.773606E-02    6.671232E-03    6.283760E-04
         3.903772E-05    1.631943E-06    4.780361E-08    1.025240E-09    1.675739E-11    2.155232E-13    2.212223E-15    1.689522E-17    1.160747E-20   -4.388312E-21
        -1.710115E-22
  20    -1.167600E-23   -3.705206E-22   -7.567327E-21    3.024324E-19    6.417908E-17    7.086546E-15    6.022516E-13    4.036727E-11    2.091852E-09    8.129047E-08
         2.292006E-06    4.556120E-05    6.283760E-04    6.038938E-03    3.928760E-02    0.127255        3.928760E-02    6.038938E-03    6.283760E-04    4.556120E-05
         2.292006E-06    8.129047E-08    2.091852E-09    4.036727E-11    6.022515E-13    7.086529E-15    6.417757E-17    3.023201E-19   -7.572817E-21   -3.707316E-22
        -1.168298E-23
  21    -5.756494E-25   -2.104266E-23   -6.410966E-22   -8.440719E-21    1.116377E-18    1.619849E-16    1.554625E-14    1.152757E-12    6.654836E-11    2.932315E-09
         9.616825E-08    2.292006E-06    3.903772E-05    4.670080E-04    3.670059E-03    1.377749E-02    3.670059E-03    4.670080E-04    3.903772E-05    2.292006E-06
         9.616825E-08    2.932315E-09    6.654836E-11    1.152757E-12    1.554621E-14    1.619804E-16    1.115984E-18   -8.461414E-21   -6.419223E-22   -2.106980E-23
        -5.764366E-25
  22    -2.076171E-26   -8.612535E-25   -3.191080E-23   -9.138231E-22   -4.293215E-21    2.446236E-18    2.915920E-16    2.448157E-14    1.578504E-12    7.827470E-11
         2.932315E-09    8.129047E-08    1.631943E-06    2.295828E-05    2.072572E-04    8.705171E-04    2.072572E-04    2.295828E-05    1.631943E-06    8.129047E-08
         2.932315E-09    7.827470E-11    1.578504E-12    2.448150E-14    2.915822E-16    2.445283E-18   -4.348018E-21   -9.161053E-22   -3.198729E-23   -8.634267E-25
        -2.081713E-26
  23    -5.523325E-28   -2.608067E-26   -1.128436E-24   -4.183021E-23   -1.124118E-21    3.809226E-21    3.763234E-18    3.880512E-16    2.840495E-14    1.578504E-12
         6.654836E-11    2.091852E-09    4.780361E-08    7.609288E-07    7.634682E-06    3.504120E-05    7.634682E-06    7.609288E-07    4.780361E-08    2.091852E-09
         6.654836E-11    1.578504E-12    2.840486E-14    3.880363E-16    3.761624E-18    3.705390E-21   -1.128716E-21   -4.198953E-23   -1.133003E-24   -2.619357E-26
        -5.548682E-28
  24    -1.085555E-29   -5.894967E-28   -2.975235E-26   -1.324616E-24   -4.907809E-23   -1.244262E-21    1.043724E-20    4.320571E-18    3.880517E-16    2.448157E-14
         1.152757E-12    4.036727E-11    1.025240E-09    1.799986E-08    1.964125E-07    9.693034E-07    1.964125E-07    1.799986E-08    1.025240E-09    4.036727E-11
         1.152757E-12    2.448150E-14    3.880363E-16    4.318614E-18    1.029300E-20   -1.251243E-21   -4.933358E-23   -1.332122E-24   -2.993733E-26   -5.934694E-28
        -1.093380E-29
  25    -1.564558E-31   -9.926414E-30   -5.926364E-28   -3.154891E-26   -1.437464E-24   -5.280463E-23   -1.281234E-21    1.044209E-20    3.763354E-18    2.915932E-16
         1.554625E-14    6.022516E-13    1.675739E-11    3.192098E-10    3.733686E-09    1.958521E-08    3.733686E-09    3.192098E-10    1.675739E-11    6.022515E-13
         1.554621E-14    2.915822E-16    3.761624E-18    1.029300E-20   -1.289399E-21   -5.312996E-23   -1.447499E-24   -3.179955E-26   -5.979131E-28   -1.002386E-29
        -1.581215E-31
  26    -1.621840E-33   -1.231088E-31   -8.920938E-30   -5.786865E-28   -3.215197E-26   -1.473122E-24   -5.279551E-23   -1.243829E-21    3.819936E-21    2.446379E-18
         1.619857E-16    7.086548E-15    2.155232E-13    4.417880E-12    5.489305E-11    3.035471E-10    5.489305E-11    4.417880E-12    2.155232E-13    7.086529E-15
         1.619804E-16    2.445283E-18    3.705390E-21   -1.251243E-21   -5.312996E-23   -1.484329E-24   -3.244379E-26   -5.848262E-28   -9.029563E-30   -1.247991E-31
        -1.646456E-33
  27    -1.164944E-35   -1.099296E-33   -1.009122E-31   -8.261798E-30   -5.708835E-28   -3.214502E-26   -1.436940E-24   -4.905609E-23   -1.123536E-21   -4.283732E-21
         1.116463E-18    6.417942E-17    2.212229E-15    4.906519E-14    6.463384E-13    3.750204E-12    6.463383E-13    4.906517E-14    2.212223E-15    6.417757E-17
         1.115984E-18   -4.348018E-21   -1.128716E-21   -4.933358E-23   -1.447499E-24   -3.244379E-26   -5.774002E-28   -8.375156E-30   -1.025494E-31   -1.120025E-33
        -1.189891E-35
  28    -5.410159E-38   -6.802913E-36   -8.522588E-34   -9.303977E-32   -8.259443E-30   -5.784111E-28   -3.153057E-26   -1.323814E-24   -4.180692E-23   -9.133868E-22
        -8.435829E-21    3.024616E-19    1.689569E-17    4.352884E-16    6.196280E-15    3.781824E-14    6.196277E-15    4.352870E-16    1.689522E-17    3.023201E-19
        -8.461414E-21   -9.161053E-22   -4.198953E-23   -1.332122E-24   -3.179955E-26   -5.848262E-28   -8.375156E-30   -9.465932E-32   -8.705105E-34   -6.980062E-36
        -5.577243E-38
  29    -1.411969E-40   -2.752389E-38   -5.407779E-36   -8.519158E-34   -1.008473E-31   -8.914024E-30   -5.921525E-28   -2.972930E-26   -1.127692E-24   -3.189503E-23
        -6.408906E-22   -7.565813E-21    1.163673E-20    2.442618E-18    4.528480E-17    3.045439E-16    4.528466E-17    2.442533E-18    1.160747E-20   -7.572817E-21
        -6.419223E-22   -3.198729E-23   -1.133003E-24   -2.993733E-26   -5.979131E-28   -9.029563E-30   -1.025494E-31   -8.705105E-34   -5.561357E-36   -2.855136E-38
        -1.480223E-40
  30    -1.428197E-43   -6.890444E-41   -2.750491E-38   -6.796379E-36   -1.098108E-33   -1.229721E-31   -9.915853E-30   -5.889386E-28   -2.606061E-26   -8.607774E-25
        -2.103559E-23   -3.704603E-22   -4.387001E-21   -2.737281E-20    4.211142E-20    1.201810E-18    4.210432E-20   -2.737703E-20   -4.388312E-21   -3.707316E-22
        -2.106980E-23   -8.634267E-25   -2.619357E-26   -5.934694E-28   -1.002386E-29   -1.247991E-31   -1.120025E-33   -6.980062E-36   -2.855136E-38   -7.292472E-41
        -1.568916E-43
  31      0.00000       -1.424944E-43   -1.409328E-40   -5.400922E-38   -1.163084E-35   -1.619446E-33   -1.562494E-31   -1.084342E-29   -5.518484E-28   -2.074893E-26
        -5.754371E-25   -1.167395E-23   -1.709623E-22   -1.755395E-21   -1.139424E-20   -4.356195E-20   -1.139454E-20   -1.755565E-21   -1.710115E-22   -1.168298E-23
        -5.764366E-25   -2.081713E-26   -5.548682E-28   -1.093380E-29   -1.581215E-31   -1.646456E-33   -1.189891E-35   -5.577243E-38   -1.480223E-40   -1.568916E-43
          0.00000    

 CONCENTRATION WILL BE SAVED ON UNIT 1030 AT END OF TIME STEP  102, STRESS PERIOD    2


  MASS BUDGET FOR ENTIRE MODEL AT END OF TIME STEP  102, STRESS PERIOD   2
  ---------------------------------------------------------------------------------------------------

     CUMULATIVE MASS      M       RATES FOR THIS TIME STEP      M/T          PACKAGE NAME    
     ------------------                 ------------------------                     ----------------

           IN:                                      IN:
           ---                                      ---
     STORAGE-AQUEOUS =  7641699822.2176       STORAGE-AQUEOUS =      310277.1852     MST                              
                 WEL =  7884000000.0000                   WEL =           0.0000     SSM_WEL-1                        
                 CHD =           0.0000                   CHD =           0.0000     SSM_CHD-1                        

            TOTAL IN = 15525699822.2177              TOTAL IN =      310277.1852

          OUT:                                     OUT:
          ----                                     ----
     STORAGE-AQUEOUS =  7888719458.0664       STORAGE-AQUEOUS =           1.6383     MST                              
                 WEL =  7636980364.1515                   WEL =      310275.5469     SSM_WEL-1                        
                 CHD =       7.5562E-18                   CHD =           0.0000     SSM_CHD-1                        

           TOTAL OUT = 15525699822.2179             TOTAL OUT =      310277.1852

            IN - OUT =      -2.0599E-04              IN - OUT =      -8.2422E-08

 PERCENT DISCREPANCY =          -0.00     PERCENT DISCREPANCY =          -0.00




         TIME SUMMARY AT END OF TIME STEP  102 IN STRESS PERIOD    2
                    SECONDS     MINUTES      HOURS       DAYS        YEARS
                    -----------------------------------------------------------
   TIME STEP LENGTH 2.16991E+06  36165.      602.75      25.115     6.87602E-02
 STRESS PERIOD TIME 2.21331E+08 3.68884E+06  61481.      2561.7      7.0135    
         TOTAL TIME 3.00171E+08 5.00284E+06  83381.      3474.2      9.5118    


end timestep


start timestep kper="2" kstp="103" mode="normal"

 UBDSV1 SAVING  STORAGE-AQUEOUS ON UNIT   1029 AT TIME STEP    103, STRESS PERIOD      2
 UBDSV1 SAVING     FLOW-JA-FACE ON UNIT   1029 AT TIME STEP    103, STRESS PERIOD      2
 UBDSV06 SAVING  SOURCE-SINK MIX IN MODEL GWT_P06-MF6      PACKAGE GWT_P06-MF6     CONNECTED TO MODEL GWT_P06-MF6      PACKAGE SSM              ON UNIT   1029 AT TIME STEP    103, STRESS PERIOD      2
1
  CONCENTRATION IN LAYER   1 AT END OF TIME STEP 103 IN STRESS PERIOD    2
  ---------------------------------------------------------------------------

                1               2               3               4               5               6               7               8               9              10
               11              12              13              14              15              16              17              18              19              20
               21              22              23              24              25              26              27              28              29              30
               31
 ................................................................................................................................................................................................................................................................................................................................................................................................................................................................................................................
   1      0.00000       -1.724051E-43   -1.584239E-40   -5.903701E-38   -1.250648E-35   -1.720902E-33   -1.644672E-31   -1.132149E-29   -5.720944E-28   -2.137550E-26
        -5.895293E-25   -1.189878E-23   -1.732845E-22   -1.764820E-21   -1.129850E-20   -4.245101E-20   -1.129824E-20   -1.764677E-21   -1.732453E-22   -1.189171E-23
        -5.887296E-25   -2.131901E-26   -5.695006E-28   -1.124115E-29   -1.627502E-31   -1.695432E-33   -1.224734E-35   -5.729442E-38   -1.512750E-40   -1.575964E-43
          0.00000    
   2    -1.724051E-43   -7.823143E-41   -3.023908E-38   -7.335759E-36   -1.170410E-33   -1.297887E-31   -1.037926E-29   -6.119744E-28   -2.690102E-26   -8.830314E-25
        -2.144158E-23   -3.744084E-22   -4.358189E-21   -2.555868E-20    7.162859E-20    1.379847E-18    7.163493E-20   -2.555512E-20   -4.357142E-21   -3.741953E-22
        -2.141409E-23   -8.808232E-25   -2.678589E-26   -6.079088E-28   -1.027917E-29   -1.280463E-31   -1.148966E-33   -7.151831E-36   -2.916821E-38   -7.402319E-41
        -1.572522E-43
   3    -1.584239E-40   -3.023908E-38   -5.844598E-36   -9.095079E-34   -1.066283E-31   -9.348515E-30   -6.165406E-28   -3.074695E-26   -1.158597E-24   -3.251863E-23
        -6.451236E-22   -7.314125E-21    2.364026E-20    2.716671E-18    4.888523E-17    3.250712E-16    4.888535E-17    2.716742E-18    2.366378E-20   -7.308601E-21
        -6.442900E-22   -3.244116E-23   -1.153955E-24   -3.055826E-26   -6.111388E-28   -9.236932E-30   -1.049408E-31   -8.906300E-34   -5.685174E-36   -2.914835E-38
        -1.509971E-40
   4    -5.903701E-38   -7.335759E-36   -9.095079E-34   -9.841484E-32   -8.669898E-30   -6.029866E-28   -3.265708E-26   -1.361903E-24   -4.263468E-23   -9.145647E-22
        -7.547217E-21    3.498864E-19    1.834787E-17    4.655361E-16    6.568520E-15    3.982563E-14    6.568523E-15    4.655373E-16    1.834825E-17    3.499989E-19
        -7.526402E-21   -9.122608E-22   -4.247327E-23   -1.354270E-24   -3.240134E-26   -5.967004E-28   -8.553449E-30   -9.674552E-32   -8.902742E-34   -7.145024E-36
        -5.719772E-38
   5    -1.250648E-35   -1.170410E-33   -1.066283E-31   -8.669898E-30   -5.953003E-28   -3.331618E-26   -1.479532E-24   -5.003392E-23   -1.118344E-21   -2.257471E-21
         1.244404E-18    6.916894E-17    2.355892E-15    5.182799E-14    6.781507E-13    3.911459E-12    6.781508E-13    5.182801E-14    2.355898E-15    6.917044E-17
         1.244798E-18   -2.202376E-21   -1.113702E-21   -4.977501E-23   -1.469327E-24   -3.301839E-26   -5.886277E-28   -8.551025E-30   -1.048737E-31   -1.147734E-33
        -1.222796E-35
   6    -1.720902E-33   -1.297887E-31   -9.348515E-30   -6.029866E-28   -3.331618E-26   -1.517041E-24   -5.384633E-23   -1.231938E-21    7.178003E-21    2.685752E-18
         1.739196E-16    7.526591E-15    2.270483E-13    4.621503E-12    5.706337E-11    3.137400E-10    5.706337E-11    4.621503E-12    2.270484E-13    7.526607E-15
         1.739241E-16    2.686701E-18    7.282356E-21   -1.224890E-21   -5.351660E-23   -1.505643E-24   -3.301128E-26   -5.964182E-28   -9.229819E-30   -1.279052E-31
        -1.692949E-33
   7    -1.644672E-31   -1.037926E-29   -6.165406E-28   -3.265708E-26   -1.479532E-24   -5.384633E-23   -1.266323E-21    1.471845E-20    4.108137E-18    3.124407E-16
         1.648166E-14    6.331302E-13    1.748494E-11    3.308134E-10    3.845668E-09    2.005901E-08    3.845668E-09    3.308134E-10    1.748494E-11    6.331303E-13
         1.648170E-14    3.124505E-16    4.109738E-18    1.486338E-20   -1.258079E-21   -5.350735E-23   -1.468794E-24   -3.238261E-26   -6.106429E-28   -1.026831E-29
        -1.625371E-31
   8    -1.132149E-29   -6.119744E-28   -3.074695E-26   -1.361903E-24   -5.003392E-23   -1.231938E-21    1.471845E-20    4.712187E-18    4.153948E-16    2.592650E-14
         1.210071E-12    4.203422E-11    1.059665E-09    1.847870E-08    2.004148E-07    9.835920E-07    2.004148E-07    1.847870E-08    1.059665E-09    4.203422E-11
         1.210071E-12    2.592656E-14    4.154095E-16    4.714132E-18    1.486826E-20   -1.224453E-21   -4.975271E-23   -1.353455E-24   -3.053472E-26   -6.073370E-28
        -1.122867E-29
   9    -5.720944E-28   -2.690102E-26   -1.158597E-24   -4.263468E-23   -1.118344E-21    7.178003E-21    4.108137E-18    4.153948E-16    3.007057E-14    1.655711E-12
         6.920428E-11    2.157676E-09    4.893648E-08    7.736830E-07    7.716266E-06    3.522555E-05    7.716266E-06    7.736830E-07    4.893648E-08    2.157676E-09
         6.920428E-11    1.655711E-12    3.007065E-14    4.154100E-16    4.109857E-18    7.293119E-21   -1.113114E-21   -4.244966E-23   -1.153198E-24   -2.676543E-26
        -5.690050E-28
  10    -2.137550E-26   -8.830314E-25   -3.251863E-23   -9.145647E-22   -2.257471E-21    2.685752E-18    3.124407E-16    2.592650E-14    1.655711E-12    8.136101E-11
         3.021205E-09    8.305266E-08    1.654435E-06    2.311614E-05    2.074645E-04    8.669205E-04    2.074645E-04    2.311614E-05    1.654435E-06    8.305266E-08
         3.021205E-09    8.136101E-11    1.655711E-12    2.592657E-14    3.124516E-16    2.686843E-18   -2.192845E-21   -9.118204E-22   -3.242518E-23   -8.803394E-25
        -2.130598E-26
  11    -5.895293E-25   -2.144158E-23   -6.451236E-22   -7.547217E-21    1.244404E-18    1.739196E-16    1.648166E-14    1.210071E-12    6.920428E-11    3.021205E-09
         9.818304E-08    2.319607E-06    3.919266E-05    4.656585E-04    3.638981E-03    1.359611E-02    3.638981E-03    4.656585E-04    3.919266E-05    2.319607E-06
         9.818304E-08    3.021205E-09    6.920427E-11    1.210071E-12    1.648170E-14    1.739249E-16    1.244884E-18   -7.521487E-21   -6.440821E-22   -2.140694E-23
        -5.885140E-25
  12    -1.189878E-23   -3.744084E-22   -7.314125E-21    3.498864E-19    6.916894E-17    7.526591E-15    6.331302E-13    4.203422E-11    2.157676E-09    8.305266E-08
         2.319607E-06    4.569113E-05    6.249743E-04    5.965498E-03    3.861000E-02    0.124550        3.861000E-02    5.965498E-03    6.249743E-04    4.569113E-05
         2.319607E-06    8.305266E-08    2.157676E-09    4.203422E-11    6.331303E-13    7.526610E-15    6.917078E-17    3.500281E-19   -7.307078E-21   -3.741345E-22
        -1.188964E-23
  13    -1.732845E-22   -4.358189E-21    2.364026E-20    1.834787E-17    2.355892E-15    2.270483E-13    1.748494E-11    1.059665E-09    4.893648E-08    1.654435E-06
         3.919266E-05    6.249743E-04    6.579497E-03    4.677065E-02    0.233298        0.618254        0.233298        4.677065E-02    6.579497E-03    6.249743E-04
         3.919266E-05    1.654435E-06    4.893648E-08    1.059665E-09    1.748494E-11    2.270484E-13    2.355899E-15    1.834834E-17    2.366962E-20   -4.356868E-21
        -1.732347E-22
  14    -1.764820E-21   -2.555868E-20    2.716671E-18    4.655361E-16    5.182799E-14    4.621503E-12    3.308134E-10    1.847870E-08    7.736830E-07    2.311614E-05
         4.656585E-04    5.965498E-03    4.677065E-02    0.231378        0.812842         1.66068        0.812842        0.231378        4.677065E-02    5.965498E-03
         4.656585E-04    2.311614E-05    7.736830E-07    1.847870E-08    3.308134E-10    4.621503E-12    5.182802E-14    4.655375E-16    2.716755E-18   -2.555444E-20
        -1.764648E-21
  15    -1.129850E-20    7.162859E-20    4.888523E-17    6.568520E-15    6.781507E-13    5.706337E-11    3.845668E-09    2.004148E-07    7.716266E-06    2.074645E-04
         3.638981E-03    3.861000E-02    0.233298        0.812842         2.02781         2.72242         2.02781        0.812842        0.233298        3.861000E-02
         3.638981E-03    2.074645E-04    7.716266E-06    2.004148E-07    3.845668E-09    5.706337E-11    6.781508E-13    6.568523E-15    4.888537E-17    7.163573E-20
        -1.129820E-20
  16    -4.245101E-20    1.379847E-18    3.250712E-16    3.982563E-14    3.911459E-12    3.137400E-10    2.005901E-08    9.835920E-07    3.522555E-05    8.669205E-04
         1.359611E-02    0.124550        0.618254         1.66068         2.72242         3.47235         2.72242         1.66068        0.618254        0.124550    
         1.359611E-02    8.669205E-04    3.522555E-05    9.835920E-07    2.005901E-08    3.137400E-10    3.911459E-12    3.982563E-14    3.250712E-16    1.379847E-18
        -4.245101E-20
  17    -1.129824E-20    7.163493E-20    4.888535E-17    6.568523E-15    6.781508E-13    5.706337E-11    3.845668E-09    2.004148E-07    7.716266E-06    2.074645E-04
         3.638981E-03    3.861000E-02    0.233298        0.812842         2.02781         2.72242         2.02781        0.812842        0.233298        3.861000E-02
         3.638981E-03    2.074645E-04    7.716266E-06    2.004148E-07    3.845668E-09    5.706337E-11    6.781507E-13    6.568520E-15    4.888523E-17    7.162859E-20
        -1.129850E-20
  18    -1.764677E-21   -2.555512E-20    2.716742E-18    4.655373E-16    5.182801E-14    4.621503E-12    3.308134E-10    1.847870E-08    7.736830E-07    2.311614E-05
         4.656585E-04    5.965498E-03    4.677065E-02    0.231378        0.812842         1.66068        0.812842        0.231378        4.677065E-02    5.965498E-03
         4.656585E-04    2.311614E-05    7.736830E-07    1.847870E-08    3.308134E-10    4.621503E-12    5.182799E-14    4.655361E-16    2.716671E-18   -2.555868E-20
        -1.764820E-21
  19    -1.732453E-22   -4.357142E-21    2.366378E-20    1.834825E-17    2.355898E-15    2.270484E-13    1.748494E-11    1.059665E-09    4.893648E-08    1.654435E-06
         3.919266E-05    6.249743E-04    6.579497E-03    4.677065E-02    0.233298        0.618254        0.233298        4.677065E-02    6.579497E-03    6.249743E-04
         3.919266E-05    1.654435E-06    4.893648E-08    1.059665E-09    1.748494E-11    2.270483E-13    2.355892E-15    1.834787E-17    2.364026E-20   -4.358189E-21
        -1.732845E-22
  20    -1.189171E-23   -3.741953E-22   -7.308601E-21    3.499989E-19    6.917044E-17    7.526607E-15    6.331303E-13    4.203422E-11    2.157676E-09    8.305266E-08
         2.319607E-06    4.569113E-05    6.249743E-04    5.965498E-03    3.861000E-02    0.124550        3.861000E-02    5.965498E-03    6.249743E-04    4.569113E-05
         2.319607E-06    8.305266E-08    2.157676E-09    4.203422E-11    6.331302E-13    7.526591E-15    6.916894E-17    3.498864E-19   -7.314125E-21   -3.744084E-22
        -1.189878E-23
  21    -5.887296E-25   -2.141409E-23   -6.442900E-22   -7.526402E-21    1.244798E-18    1.739241E-16    1.648170E-14    1.210071E-12    6.920428E-11    3.021205E-09
         9.818304E-08    2.319607E-06    3.919266E-05    4.656585E-04    3.638981E-03    1.359611E-02    3.638981E-03    4.656585E-04    3.919266E-05    2.319607E-06
         9.818304E-08    3.021205E-09    6.920428E-11    1.210071E-12    1.648166E-14    1.739196E-16    1.244404E-18   -7.547217E-21   -6.451236E-22   -2.144158E-23
        -5.895293E-25
  22    -2.131901E-26   -8.808232E-25   -3.244116E-23   -9.122608E-22   -2.202376E-21    2.686701E-18    3.124505E-16    2.592656E-14    1.655711E-12    8.136101E-11
         3.021205E-09    8.305266E-08    1.654435E-06    2.311614E-05    2.074645E-04    8.669205E-04    2.074645E-04    2.311614E-05    1.654435E-06    8.305266E-08
         3.021205E-09    8.136101E-11    1.655711E-12    2.592650E-14    3.124407E-16    2.685752E-18   -2.257471E-21   -9.145647E-22   -3.251863E-23   -8.830314E-25
        -2.137550E-26
  23    -5.695006E-28   -2.678589E-26   -1.153955E-24   -4.247327E-23   -1.113702E-21    7.282356E-21    4.109738E-18    4.154095E-16    3.007065E-14    1.655711E-12
         6.920427E-11    2.157676E-09    4.893648E-08    7.736830E-07    7.716266E-06    3.522555E-05    7.716266E-06    7.736830E-07    4.893648E-08    2.157676E-09
         6.920428E-11    1.655711E-12    3.007057E-14    4.153948E-16    4.108137E-18    7.178004E-21   -1.118344E-21   -4.263468E-23   -1.158597E-24   -2.690102E-26
        -5.720944E-28
  24    -1.124115E-29   -6.079088E-28   -3.055826E-26   -1.354270E-24   -4.977501E-23   -1.224890E-21    1.486338E-20    4.714132E-18    4.154100E-16    2.592657E-14
         1.210071E-12    4.203422E-11    1.059665E-09    1.847870E-08    2.004148E-07    9.835920E-07    2.004148E-07    1.847870E-08    1.059665E-09    4.203422E-11
         1.210071E-12    2.592650E-14    4.153948E-16    4.712187E-18    1.471845E-20   -1.231938E-21   -5.003392E-23   -1.361903E-24   -3.074695E-26   -6.119744E-28
        -1.132149E-29
  25    -1.627502E-31   -1.027917E-29   -6.111388E-28   -3.240134E-26   -1.469327E-24   -5.351660E-23   -1.258079E-21    1.486826E-20    4.109857E-18    3.124516E-16
         1.648170E-14    6.331303E-13    1.748494E-11    3.308134E-10    3.845668E-09    2.005901E-08    3.845668E-09    3.308134E-10    1.748494E-11    6.331302E-13
         1.648166E-14    3.124407E-16    4.108137E-18    1.471845E-20   -1.266323E-21   -5.384633E-23   -1.479532E-24   -3.265708E-26   -6.165406E-28   -1.037926E-29
        -1.644672E-31
  26    -1.695432E-33   -1.280463E-31   -9.236932E-30   -5.967004E-28   -3.301839E-26   -1.505643E-24   -5.350735E-23   -1.224453E-21    7.293119E-21    2.686843E-18
         1.739249E-16    7.526610E-15    2.270484E-13    4.621503E-12    5.706337E-11    3.137400E-10    5.706337E-11    4.621503E-12    2.270483E-13    7.526591E-15
         1.739196E-16    2.685752E-18    7.178004E-21   -1.231938E-21   -5.384633E-23   -1.517041E-24   -3.331618E-26   -6.029866E-28   -9.348515E-30   -1.297887E-31
        -1.720902E-33
  27    -1.224734E-35   -1.148966E-33   -1.049408E-31   -8.553449E-30   -5.886277E-28   -3.301128E-26   -1.468794E-24   -4.975271E-23   -1.113114E-21   -2.192845E-21
         1.244884E-18    6.917078E-17    2.355899E-15    5.182802E-14    6.781508E-13    3.911459E-12    6.781507E-13    5.182799E-14    2.355892E-15    6.916894E-17
         1.244404E-18   -2.257471E-21   -1.118344E-21   -5.003392E-23   -1.479532E-24   -3.331618E-26   -5.953003E-28   -8.669898E-30   -1.066283E-31   -1.170410E-33
        -1.250648E-35
  28    -5.729442E-38   -7.151831E-36   -8.906300E-34   -9.674552E-32   -8.551025E-30   -5.964182E-28   -3.238261E-26   -1.353455E-24   -4.244966E-23   -9.118204E-22
        -7.521487E-21    3.500281E-19    1.834834E-17    4.655375E-16    6.568523E-15    3.982563E-14    6.568520E-15    4.655361E-16    1.834787E-17    3.498864E-19
        -7.547217E-21   -9.145647E-22   -4.263468E-23   -1.361903E-24   -3.265708E-26   -6.029866E-28   -8.669898E-30   -9.841484E-32   -9.095079E-34   -7.335759E-36
        -5.903701E-38
  29    -1.512750E-40   -2.916821E-38   -5.685174E-36   -8.902742E-34   -1.048737E-31   -9.229819E-30   -6.106429E-28   -3.053472E-26   -1.153198E-24   -3.242518E-23
        -6.440821E-22   -7.307078E-21    2.366962E-20    2.716755E-18    4.888537E-17    3.250712E-16    4.888523E-17    2.716671E-18    2.364026E-20   -7.314125E-21
        -6.451236E-22   -3.251863E-23   -1.158597E-24   -3.074695E-26   -6.165406E-28   -9.348515E-30   -1.066283E-31   -9.095079E-34   -5.844598E-36   -3.023908E-38
        -1.584239E-40
  30    -1.575964E-43   -7.402319E-41   -2.914835E-38   -7.145024E-36   -1.147734E-33   -1.279052E-31   -1.026831E-29   -6.073370E-28   -2.676543E-26   -8.803394E-25
        -2.140694E-23   -3.741345E-22   -4.356868E-21   -2.555444E-20    7.163573E-20    1.379847E-18    7.162859E-20   -2.555868E-20   -4.358189E-21   -3.744084E-22
        -2.144158E-23   -8.830314E-25   -2.690102E-26   -6.119744E-28   -1.037926E-29   -1.297887E-31   -1.170410E-33   -7.335759E-36   -3.023908E-38   -7.823143E-41
        -1.724051E-43
  31      0.00000       -1.572522E-43   -1.509971E-40   -5.719772E-38   -1.222796E-35   -1.692949E-33   -1.625371E-31   -1.122867E-29   -5.690050E-28   -2.130598E-26
        -5.885140E-25   -1.188964E-23   -1.732347E-22   -1.764648E-21   -1.129820E-20   -4.245101E-20   -1.129850E-20   -1.764820E-21   -1.732845E-22   -1.189878E-23
        -5.895293E-25   -2.137550E-26   -5.720944E-28   -1.132149E-29   -1.644672E-31   -1.720902E-33   -1.250648E-35   -5.903701E-38   -1.584239E-40   -1.724051E-43
          0.00000    

 CONCENTRATION WILL BE SAVED ON UNIT 1030 AT END OF TIME STEP  103, STRESS PERIOD    2


  MASS BUDGET FOR ENTIRE MODEL AT END OF TIME STEP  103, STRESS PERIOD   2
  ---------------------------------------------------------------------------------------------------

     CUMULATIVE MASS      M       RATES FOR THIS TIME STEP      M/T          PACKAGE NAME    
     ------------------                 ------------------------                     ----------------

           IN:                                      IN:
           ---                                      ---
     STORAGE-AQUEOUS =  7649234545.5197       STORAGE-AQUEOUS =      300012.7269     MST                              
                 WEL =  7884000000.0000                   WEL =           0.0000     SSM_WEL-1                        
                 CHD =           0.0000                   CHD =           0.0000     SSM_CHD-1                        

            TOTAL IN = 15533234545.5197              TOTAL IN =      300012.7269

          OUT:                                     OUT:
          ----                                     ----
     STORAGE-AQUEOUS =  7888719496.0696       STORAGE-AQUEOUS =           1.5132     MST                              
                 WEL =  7644515049.4503                   WEL =      300011.2137     SSM_WEL-1                        
                 CHD =       7.5562E-18                   CHD =           0.0000     SSM_CHD-1                        

           TOTAL OUT = 15533234545.5199             TOTAL OUT =      300012.7269

            IN - OUT =      -2.0790E-04              IN - OUT =      -7.9570E-08

 PERCENT DISCREPANCY =          -0.00     PERCENT DISCREPANCY =          -0.00




         TIME SUMMARY AT END OF TIME STEP  103 IN STRESS PERIOD    2
                    SECONDS     MINUTES      HOURS       DAYS        YEARS
                    -----------------------------------------------------------
   TIME STEP LENGTH 2.16991E+06  36165.      602.75      25.115     6.87602E-02
 STRESS PERIOD TIME 2.23501E+08 3.72501E+06  62083.      2586.8      7.0823    
         TOTAL TIME 3.02341E+08 5.03901E+06  83983.      3499.3      9.5806    


end timestep


start timestep kper="2" kstp="104" mode="normal"

 UBDSV1 SAVING  STORAGE-AQUEOUS ON UNIT   1029 AT TIME STEP    104, STRESS PERIOD      2
 UBDSV1 SAVING     FLOW-JA-FACE ON UNIT   1029 AT TIME STEP    104, STRESS PERIOD      2
 UBDSV06 SAVING  SOURCE-SINK MIX IN MODEL GWT_P06-MF6      PACKAGE GWT_P06-MF6     CONNECTED TO MODEL GWT_P06-MF6      PACKAGE SSM              ON UNIT   1029 AT TIME STEP    104, STRESS PERIOD      2
1
  CONCENTRATION IN LAYER   1 AT END OF TIME STEP 104 IN STRESS PERIOD    2
  ---------------------------------------------------------------------------

                1               2               3               4               5               6               7               8               9              10
               11              12              13              14              15              16              17              18              19              20
               21              22              23              24              25              26              27              28              29              30
               31
 ................................................................................................................................................................................................................................................................................................................................................................................................................................................................................................................
   1      0.00000       -1.890046E-43   -1.694291E-40   -6.246633E-38   -1.314114E-35   -1.798289E-33   -1.710339E-31   -1.172098E-29   -5.897707E-28   -2.194598E-26
        -6.028368E-25   -1.211626E-23   -1.755259E-22   -1.772803E-21   -1.118384E-20   -4.123621E-20   -1.118357E-20   -1.772659E-21   -1.754863E-22   -1.210910E-23
        -6.020246E-25   -2.188841E-26   -5.871176E-28   -1.163850E-29   -1.692645E-31   -1.771938E-33   -1.287200E-35   -6.064925E-38   -1.619432E-40   -1.734244E-43
          0.00000    
   2    -1.890046E-43   -8.384797E-41   -3.201180E-38   -7.707233E-36   -1.222777E-33   -1.349518E-31   -1.074548E-29   -6.309642E-28   -2.762371E-26   -9.029322E-25
        -2.181395E-23   -3.778850E-22   -4.319901E-21   -2.356597E-20    1.033036E-19    1.568482E-18    1.033100E-19   -2.356239E-20   -4.318847E-21   -3.776699E-22
        -2.178612E-23   -9.006887E-25   -2.750632E-26   -6.268039E-28   -1.064269E-29   -1.331560E-31   -1.200596E-33   -7.516296E-36   -3.089589E-38   -7.944390E-41
        -1.730604E-43
   3    -1.694291E-40   -3.201180E-38   -6.140374E-36   -9.500330E-34   -1.108486E-31   -9.677174E-30   -6.356559E-28   -3.157382E-26   -1.184538E-24   -3.304626E-23
        -6.476381E-22   -7.022296E-21    3.663783E-20    3.008484E-18    5.268880E-17    3.466171E-16    5.268892E-17    3.008556E-18    3.666144E-20   -7.016736E-21
        -6.467967E-22   -3.296779E-23   -1.179820E-24   -3.138134E-26   -6.301266E-28   -9.562564E-30   -1.091094E-31   -9.305101E-34   -5.974906E-36   -3.087510E-38
        -1.616509E-40
   4    -6.246633E-38   -7.707233E-36   -9.500330E-34   -1.023003E-31   -8.973591E-30   -6.216211E-28   -3.353264E-26   -1.392041E-24   -4.326828E-23   -9.114101E-22
        -6.539052E-21    4.009772E-19    1.988978E-17    4.973998E-16    6.957993E-15    4.191297E-14    6.957996E-15    4.974010E-16    1.989016E-17    4.010900E-19
        -6.518118E-21   -9.090845E-22   -4.310475E-23   -1.384280E-24   -3.327172E-26   -6.151857E-28   -8.853978E-30   -1.005799E-31   -9.301412E-34   -7.509207E-36
        -6.054805E-38
   5    -1.314114E-35   -1.222777E-33   -1.108486E-31   -8.973591E-30   -6.136670E-28   -3.420675E-26   -1.511911E-24   -5.071384E-23   -1.105143E-21    2.356785E-23
         1.381911E-18    7.445493E-17    2.506848E-15    5.471015E-14    7.111188E-13    4.077542E-12    7.111188E-13    5.471017E-14    2.506853E-15    7.445643E-17
         1.382305E-18    7.895090E-23   -1.100457E-21   -5.045148E-23   -1.501533E-24   -3.390288E-26   -6.068357E-28   -8.851485E-30   -1.090402E-31   -1.199319E-33
        -1.285181E-35
   6    -1.798289E-33   -1.349518E-31   -9.677174E-30   -6.216211E-28   -3.420675E-26   -1.550090E-24   -5.453637E-23   -1.208746E-21    1.094632E-20    2.942520E-18
         1.865412E-16    7.987972E-15    2.390390E-13    4.831834E-12    5.929018E-11    3.241319E-10    5.929018E-11    4.831834E-12    2.390391E-13    7.987988E-15
         1.865457E-16    2.943465E-18    1.105118E-20   -1.201630E-21   -5.420222E-23   -1.538498E-24   -3.389562E-26   -6.148964E-28   -9.555246E-30   -1.330102E-31
        -1.769364E-33
   7    -1.710339E-31   -1.074548E-29   -6.356559E-28   -3.353264E-26   -1.511911E-24   -5.453637E-23   -1.238937E-21    1.951209E-20    4.477647E-18    3.344650E-16
         1.746079E-14    6.651828E-13    1.823419E-11    3.426743E-10    3.959327E-09    2.053661E-08    3.959327E-09    3.426743E-10    1.823419E-11    6.651829E-13
         1.746082E-14    3.344746E-16    4.479239E-18    1.965770E-20   -1.230614E-21   -5.419285E-23   -1.500990E-24   -3.325259E-26   -6.296185E-28   -1.063152E-29
        -1.690445E-31
   8    -1.172098E-29   -6.309642E-28   -3.157382E-26   -1.392041E-24   -5.071384E-23   -1.208746E-21    1.951209E-20    5.131718E-18    4.442640E-16    2.743733E-14
         1.269463E-12    4.374659E-11    1.094730E-09    1.896249E-08    2.044262E-07    9.977892E-07    2.044262E-07    1.896249E-08    1.094730E-09    4.374659E-11
         1.269464E-12    2.743739E-14    4.442786E-16    5.133651E-18    1.966260E-20   -1.201188E-21   -5.042887E-23   -1.383451E-24   -3.135732E-26   -6.262183E-28
        -1.162567E-29
   9    -5.897707E-28   -2.762371E-26   -1.184538E-24   -4.326828E-23   -1.105143E-21    1.094632E-20    4.477647E-18    4.442640E-16    3.181153E-14    1.735643E-12
         7.192787E-11    2.224533E-09    5.007608E-08    7.863840E-07    7.796519E-06    3.540274E-05    7.796519E-06    7.863840E-07    5.007608E-08    2.224533E-09
         7.192787E-11    1.735643E-12    3.181161E-14    4.442792E-16    4.479357E-18    1.106199E-20   -1.099863E-21   -4.308083E-23   -1.179050E-24   -2.748544E-26
        -5.866104E-28
  10    -2.194598E-26   -9.029322E-25   -3.304626E-23   -9.114101E-22    2.356785E-23    2.942520E-18    3.344650E-16    2.743733E-14    1.735643E-12    8.452404E-11
         3.111344E-09    8.481935E-08    1.676684E-06    2.326892E-05    2.076291E-04    8.632055E-04    2.076291E-04    2.326892E-05    1.676684E-06    8.481935E-08
         3.111344E-09    8.452404E-11    1.735643E-12    2.743740E-14    3.344758E-16    2.943607E-18    8.852859E-23   -9.086399E-22   -3.295161E-23   -9.001970E-25
        -2.187513E-26
  11    -6.028368E-25   -2.181395E-23   -6.476381E-22   -6.539052E-21    1.381911E-18    1.865412E-16    1.746079E-14    1.269463E-12    7.192787E-11    3.111344E-09
         1.002004E-07    2.346776E-06    3.933821E-05    4.642261E-04    3.607705E-03    1.341609E-02    3.607705E-03    4.642261E-04    3.933821E-05    2.346776E-06
         1.002004E-07    3.111344E-09    7.192787E-11    1.269464E-12    1.746083E-14    1.865465E-16    1.382391E-18   -6.513177E-21   -6.465869E-22   -2.177888E-23
        -6.018057E-25
  12    -1.211626E-23   -3.778850E-22   -7.022296E-21    4.009772E-19    7.445493E-17    7.987972E-15    6.651828E-13    4.374659E-11    2.224533E-09    8.481935E-08
         2.346776E-06    4.580993E-05    6.214818E-04    5.892330E-03    3.794230E-02    0.121903        3.794230E-02    5.892330E-03    6.214818E-04    4.580993E-05
         2.346776E-06    8.481935E-08    2.224533E-09    4.374659E-11    6.651829E-13    7.987990E-15    7.445676E-17    4.011193E-19   -7.015205E-21   -3.776085E-22
        -1.210700E-23
  13    -1.755259E-22   -4.319901E-21    3.663783E-20    1.988978E-17    2.506848E-15    2.390390E-13    1.823419E-11    1.094730E-09    5.007608E-08    1.676684E-06
         3.933821E-05    6.214818E-04    6.488393E-03    4.582355E-02    0.227590        0.601338        0.227590        4.582355E-02    6.488393E-03    6.214818E-04
         3.933821E-05    1.676684E-06    5.007608E-08    1.094730E-09    1.823419E-11    2.390391E-13    2.506854E-15    1.989024E-17    3.666730E-20   -4.318571E-21
        -1.754756E-22
  14    -1.772803E-21   -2.356597E-20    3.008484E-18    4.973998E-16    5.471015E-14    4.831834E-12    3.426743E-10    1.896249E-08    7.863840E-07    2.326892E-05
         4.642261E-04    5.892330E-03    4.582355E-02    0.225341        0.789014         1.60932        0.789014        0.225341        4.582355E-02    5.892330E-03
         4.642261E-04    2.326892E-05    7.863840E-07    1.896249E-08    3.426743E-10    4.831835E-12    5.471018E-14    4.974012E-16    3.008569E-18   -2.356170E-20
        -1.772630E-21
  15    -1.118384E-20    1.033036E-19    5.268880E-17    6.957993E-15    7.111188E-13    5.929018E-11    3.959327E-09    2.044262E-07    7.796519E-06    2.076291E-04
         3.607705E-03    3.794230E-02    0.227590        0.789014         1.96316         2.63421         1.96316        0.789014        0.227590        3.794230E-02
         3.607705E-03    2.076291E-04    7.796519E-06    2.044262E-07    3.959327E-09    5.929018E-11    7.111188E-13    6.957996E-15    5.268894E-17    1.033108E-19
        -1.118354E-20
  16    -4.123621E-20    1.568482E-18    3.466171E-16    4.191297E-14    4.077542E-12    3.241319E-10    2.053661E-08    9.977892E-07    3.540274E-05    8.632055E-04
         1.341609E-02    0.121903        0.601338         1.60932         2.63421         3.35776         2.63421         1.60932        0.601338        0.121903    
         1.341609E-02    8.632055E-04    3.540274E-05    9.977892E-07    2.053661E-08    3.241319E-10    4.077542E-12    4.191297E-14    3.466171E-16    1.568482E-18
        -4.123621E-20
  17    -1.118357E-20    1.033100E-19    5.268892E-17    6.957996E-15    7.111188E-13    5.929018E-11    3.959327E-09    2.044262E-07    7.796519E-06    2.076291E-04
         3.607705E-03    3.794230E-02    0.227590        0.789014         1.96316         2.63421         1.96316        0.789014        0.227590        3.794230E-02
         3.607705E-03    2.076291E-04    7.796519E-06    2.044262E-07    3.959327E-09    5.929018E-11    7.111188E-13    6.957993E-15    5.268880E-17    1.033037E-19
        -1.118384E-20
  18    -1.772659E-21   -2.356239E-20    3.008556E-18    4.974010E-16    5.471017E-14    4.831834E-12    3.426743E-10    1.896249E-08    7.863840E-07    2.326892E-05
         4.642261E-04    5.892330E-03    4.582355E-02    0.225341        0.789014         1.60932        0.789014        0.225341        4.582355E-02    5.892330E-03
         4.642261E-04    2.326892E-05    7.863840E-07    1.896249E-08    3.426743E-10    4.831834E-12    5.471015E-14    4.973998E-16    3.008484E-18   -2.356597E-20
        -1.772803E-21
  19    -1.754863E-22   -4.318847E-21    3.666144E-20    1.989016E-17    2.506853E-15    2.390391E-13    1.823419E-11    1.094730E-09    5.007608E-08    1.676684E-06
         3.933821E-05    6.214818E-04    6.488393E-03    4.582355E-02    0.227590        0.601338        0.227590        4.582355E-02    6.488393E-03    6.214818E-04
         3.933821E-05    1.676684E-06    5.007608E-08    1.094730E-09    1.823419E-11    2.390390E-13    2.506848E-15    1.988978E-17    3.663783E-20   -4.319901E-21
        -1.755259E-22
  20    -1.210910E-23   -3.776699E-22   -7.016736E-21    4.010900E-19    7.445643E-17    7.987988E-15    6.651829E-13    4.374659E-11    2.224533E-09    8.481935E-08
         2.346776E-06    4.580993E-05    6.214818E-04    5.892330E-03    3.794230E-02    0.121903        3.794230E-02    5.892330E-03    6.214818E-04    4.580993E-05
         2.346776E-06    8.481935E-08    2.224533E-09    4.374659E-11    6.651828E-13    7.987972E-15    7.445493E-17    4.009772E-19   -7.022296E-21   -3.778850E-22
        -1.211626E-23
  21    -6.020246E-25   -2.178612E-23   -6.467967E-22   -6.518118E-21    1.382305E-18    1.865457E-16    1.746082E-14    1.269464E-12    7.192787E-11    3.111344E-09
         1.002004E-07    2.346776E-06    3.933821E-05    4.642261E-04    3.607705E-03    1.341609E-02    3.607705E-03    4.642261E-04    3.933821E-05    2.346776E-06
         1.002004E-07    3.111344E-09    7.192787E-11    1.269463E-12    1.746079E-14    1.865412E-16    1.381911E-18   -6.539051E-21   -6.476381E-22   -2.181395E-23
        -6.028368E-25
  22    -2.188841E-26   -9.006887E-25   -3.296779E-23   -9.090845E-22    7.895090E-23    2.943465E-18    3.344746E-16    2.743739E-14    1.735643E-12    8.452404E-11
         3.111344E-09    8.481935E-08    1.676684E-06    2.326892E-05    2.076291E-04    8.632055E-04    2.076291E-04    2.326892E-05    1.676684E-06    8.481935E-08
         3.111344E-09    8.452404E-11    1.735643E-12    2.743733E-14    3.344650E-16    2.942520E-18    2.356794E-23   -9.114100E-22   -3.304626E-23   -9.029322E-25
        -2.194598E-26
  23    -5.871176E-28   -2.750632E-26   -1.179820E-24   -4.310475E-23   -1.100457E-21    1.105118E-20    4.479239E-18    4.442786E-16    3.181161E-14    1.735643E-12
         7.192787E-11    2.224533E-09    5.007608E-08    7.863840E-07    7.796519E-06    3.540274E-05    7.796519E-06    7.863840E-07    5.007608E-08    2.224533E-09
         7.192787E-11    1.735643E-12    3.181153E-14    4.442640E-16    4.477647E-18    1.094632E-20   -1.105143E-21   -4.326828E-23   -1.184538E-24   -2.762371E-26
        -5.897707E-28
  24    -1.163850E-29   -6.268039E-28   -3.138134E-26   -1.384280E-24   -5.045148E-23   -1.201630E-21    1.965770E-20    5.133652E-18    4.442792E-16    2.743740E-14
         1.269464E-12    4.374659E-11    1.094730E-09    1.896249E-08    2.044262E-07    9.977892E-07    2.044262E-07    1.896249E-08    1.094730E-09    4.374659E-11
         1.269463E-12    2.743733E-14    4.442640E-16    5.131718E-18    1.951209E-20   -1.208746E-21   -5.071384E-23   -1.392041E-24   -3.157382E-26   -6.309642E-28
        -1.172098E-29
  25    -1.692645E-31   -1.064269E-29   -6.301266E-28   -3.327172E-26   -1.501533E-24   -5.420222E-23   -1.230614E-21    1.966260E-20    4.479357E-18    3.344758E-16
         1.746083E-14    6.651829E-13    1.823419E-11    3.426743E-10    3.959327E-09    2.053661E-08    3.959327E-09    3.426743E-10    1.823419E-11    6.651828E-13
         1.746079E-14    3.344650E-16    4.477647E-18    1.951209E-20   -1.238937E-21   -5.453637E-23   -1.511911E-24   -3.353264E-26   -6.356559E-28   -1.074548E-29
        -1.710339E-31
  26    -1.771938E-33   -1.331560E-31   -9.562564E-30   -6.151857E-28   -3.390288E-26   -1.538498E-24   -5.419285E-23   -1.201188E-21    1.106199E-20    2.943607E-18
         1.865465E-16    7.987990E-15    2.390391E-13    4.831835E-12    5.929018E-11    3.241319E-10    5.929018E-11    4.831834E-12    2.390390E-13    7.987972E-15
         1.865412E-16    2.942520E-18    1.094632E-20   -1.208746E-21   -5.453637E-23   -1.550090E-24   -3.420675E-26   -6.216211E-28   -9.677174E-30   -1.349518E-31
        -1.798289E-33
  27    -1.287200E-35   -1.200596E-33   -1.091094E-31   -8.853978E-30   -6.068357E-28   -3.389562E-26   -1.500990E-24   -5.042887E-23   -1.099863E-21    8.852859E-23
         1.382391E-18    7.445676E-17    2.506854E-15    5.471018E-14    7.111188E-13    4.077542E-12    7.111188E-13    5.471015E-14    2.506848E-15    7.445493E-17
         1.381911E-18    2.356794E-23   -1.105143E-21   -5.071384E-23   -1.511911E-24   -3.420675E-26   -6.136670E-28   -8.973591E-30   -1.108486E-31   -1.222777E-33
        -1.314114E-35
  28    -6.064925E-38   -7.516296E-36   -9.305101E-34   -1.005799E-31   -8.851485E-30   -6.148964E-28   -3.325259E-26   -1.383451E-24   -4.308083E-23   -9.086399E-22
        -6.513177E-21    4.011193E-19    1.989024E-17    4.974012E-16    6.957996E-15    4.191297E-14    6.957993E-15    4.973998E-16    1.988978E-17    4.009772E-19
        -6.539051E-21   -9.114100E-22   -4.326828E-23   -1.392041E-24   -3.353264E-26   -6.216211E-28   -8.973591E-30   -1.023003E-31   -9.500330E-34   -7.707233E-36
        -6.246633E-38
  29    -1.619432E-40   -3.089589E-38   -5.974906E-36   -9.301412E-34   -1.090402E-31   -9.555246E-30   -6.296185E-28   -3.135732E-26   -1.179050E-24   -3.295161E-23
        -6.465869E-22   -7.015205E-21    3.666730E-20    3.008569E-18    5.268894E-17    3.466171E-16    5.268880E-17    3.008484E-18    3.663783E-20   -7.022296E-21
        -6.476381E-22   -3.304626E-23   -1.184538E-24   -3.157382E-26   -6.356559E-28   -9.677174E-30   -1.108486E-31   -9.500330E-34   -6.140374E-36   -3.201180E-38
        -1.694291E-40
  30    -1.734244E-43   -7.944390E-41   -3.087510E-38   -7.509207E-36   -1.199319E-33   -1.330102E-31   -1.063152E-29   -6.262183E-28   -2.748544E-26   -9.001970E-25
        -2.177888E-23   -3.776085E-22   -4.318571E-21   -2.356170E-20    1.033108E-19    1.568482E-18    1.033037E-19   -2.356597E-20   -4.319901E-21   -3.778850E-22
        -2.181395E-23   -9.029322E-25   -2.762371E-26   -6.309642E-28   -1.074548E-29   -1.349518E-31   -1.222777E-33   -7.707233E-36   -3.201180E-38   -8.384797E-41
        -1.890046E-43
  31      0.00000       -1.730604E-43   -1.616509E-40   -6.054805E-38   -1.285181E-35   -1.769364E-33   -1.690445E-31   -1.162567E-29   -5.866104E-28   -2.187513E-26
        -6.018057E-25   -1.210700E-23   -1.754756E-22   -1.772630E-21   -1.118354E-20   -4.123621E-20   -1.118384E-20   -1.772803E-21   -1.755259E-22   -1.211626E-23
        -6.028368E-25   -2.194598E-26   -5.897707E-28   -1.172098E-29   -1.710339E-31   -1.798289E-33   -1.314114E-35   -6.246633E-38   -1.694291E-40   -1.890046E-43
          0.00000    

 CONCENTRATION WILL BE SAVED ON UNIT 1030 AT END OF TIME STEP  104, STRESS PERIOD    2


  MASS BUDGET FOR ENTIRE MODEL AT END OF TIME STEP  104, STRESS PERIOD   2
  ---------------------------------------------------------------------------------------------------

     CUMULATIVE MASS      M       RATES FOR THIS TIME STEP      M/T          PACKAGE NAME    
     ------------------                 ------------------------                     ----------------

           IN:                                      IN:
           ---                                      ---
     STORAGE-AQUEOUS =  7656520618.9504       STORAGE-AQUEOUS =      290112.1476     MST                              
                 WEL =  7884000000.0000                   WEL =           0.0000     SSM_WEL-1                        
                 CHD =           0.0000                   CHD =           0.0000     SSM_CHD-1                        

            TOTAL IN = 15540520618.9504              TOTAL IN =      290112.1476

          OUT:                                     OUT:
          ----                                     ----
     STORAGE-AQUEOUS =  7888719530.9684       STORAGE-AQUEOUS =           1.3896     MST                              
                 WEL =  7651801087.9822                   WEL =      290110.7580     SSM_WEL-1                        
                 CHD =       7.5562E-18                   CHD =           0.0000     SSM_CHD-1                        

           TOTAL OUT = 15540520618.9506             TOTAL OUT =      290112.1476

            IN - OUT =      -2.0981E-04              IN - OUT =      -7.6718E-08

 PERCENT DISCREPANCY =          -0.00     PERCENT DISCREPANCY =          -0.00




         TIME SUMMARY AT END OF TIME STEP  104 IN STRESS PERIOD    2
                    SECONDS     MINUTES      HOURS       DAYS        YEARS
                    -----------------------------------------------------------
   TIME STEP LENGTH 2.16991E+06  36165.      602.75      25.115     6.87602E-02
 STRESS PERIOD TIME 2.25670E+08 3.76117E+06  62686.      2611.9      7.1511    
         TOTAL TIME 3.04510E+08 5.07517E+06  84586.      3524.4      9.6494    


end timestep


start timestep kper="2" kstp="105" mode="normal"

 UBDSV1 SAVING  STORAGE-AQUEOUS ON UNIT   1029 AT TIME STEP    105, STRESS PERIOD      2
 UBDSV1 SAVING     FLOW-JA-FACE ON UNIT   1029 AT TIME STEP    105, STRESS PERIOD      2
 UBDSV06 SAVING  SOURCE-SINK MIX IN MODEL GWT_P06-MF6      PACKAGE GWT_P06-MF6     CONNECTED TO MODEL GWT_P06-MF6      PACKAGE SSM              ON UNIT   1029 AT TIME STEP    105, STRESS PERIOD      2
1
  CONCENTRATION IN LAYER   1 AT END OF TIME STEP 105 IN STRESS PERIOD    2
  ---------------------------------------------------------------------------

                1               2               3               4               5               6               7               8               9              10
               11              12              13              14              15              16              17              18              19              20
               21              22              23              24              25              26              27              28              29              30
               31
 ................................................................................................................................................................................................................................................................................................................................................................................................................................................................................................................
   1      0.00000       -2.067525E-43   -1.810683E-40   -6.606764E-38   -1.380394E-35   -1.878718E-33   -1.778284E-31   -1.213257E-29   -6.079063E-28   -2.252875E-26
        -6.163590E-25   -1.233526E-23   -1.777303E-22   -1.779406E-21   -1.104928E-20   -3.991168E-20   -1.104901E-20   -1.779261E-21   -1.776904E-22   -1.232801E-23
        -6.155341E-25   -2.247008E-26   -6.051928E-28   -1.204789E-29   -1.760050E-31   -1.851460E-33   -1.352446E-35   -6.417324E-38   -1.732310E-40   -1.903650E-43
          0.00000    
   2    -2.067525E-43   -8.978980E-41   -3.387324E-38   -8.095098E-36   -1.277193E-33   -1.402936E-31   -1.112282E-29   -6.504487E-28   -2.836181E-26   -9.231252E-25
        -2.218644E-23   -3.811394E-22   -4.272833E-21   -2.138809E-20    1.372458E-19    1.768213E-18    1.372522E-19   -2.138449E-20   -4.271770E-21   -3.809222E-22
        -2.215826E-23   -9.208458E-25   -2.824212E-26   -6.461919E-28   -1.101726E-29   -1.384430E-31   -1.254253E-33   -7.896914E-36   -3.271059E-38   -8.518171E-41
        -1.899800E-43
   3    -1.810683E-40   -3.387324E-38   -6.449170E-36   -9.921382E-34   -1.152145E-31   -1.001578E-29   -6.552686E-28   -3.241809E-26   -1.210817E-24   -3.356903E-23
        -6.494011E-22   -6.694976E-21    5.065744E-20    3.318871E-18    5.670420E-17    3.692191E-16    5.670432E-17    3.318942E-18    5.068114E-20   -6.689381E-21
        -6.485519E-22   -3.348956E-23   -1.206021E-24   -3.222178E-26   -6.496095E-28   -9.898079E-30   -1.134223E-31   -9.719508E-34   -6.277454E-36   -3.268884E-38
        -1.729236E-40
   4    -6.606764E-38   -8.095098E-36   -9.921382E-34   -1.063197E-31   -9.286460E-30   -6.407391E-28   -3.442636E-26   -1.422519E-24   -4.388823E-23   -9.065027E-22
        -5.430503E-21    4.557943E-19    2.152523E-17    5.309433E-16    7.365266E-15    4.408236E-14    7.365268E-15    5.309445E-16    2.152562E-17    4.559073E-19
        -5.409452E-21   -9.041554E-22   -4.372257E-23   -1.414629E-24   -3.416017E-26   -6.341516E-28   -9.163611E-30   -1.045468E-31   -9.715683E-34   -7.889532E-36
        -6.406734E-38
   5    -1.380394E-35   -1.277193E-33   -1.152145E-31   -9.286460E-30   -6.325097E-28   -3.511561E-26   -1.544612E-24   -5.137031E-23   -1.088885E-21    2.507655E-21
         1.529008E-18    8.004901E-17    2.665361E-15    5.771517E-14    7.452676E-13    4.248521E-12    7.452676E-13    5.771518E-14    2.665367E-15    8.005050E-17
         1.529402E-18    2.563322E-21   -1.084155E-21   -5.110448E-23   -1.534059E-24   -3.480557E-26   -6.255164E-28   -9.161046E-30   -1.133508E-31   -1.252928E-33
        -1.350344E-35
   6    -1.878718E-33   -1.402936E-31   -1.001578E-29   -6.407391E-28   -3.511561E-26   -1.583452E-24   -5.519651E-23   -1.181361E-21    1.502935E-20    3.216457E-18
         1.998752E-16    8.471412E-15    2.515074E-13    5.048991E-12    6.157396E-11    3.347224E-10    6.157396E-11    5.048991E-12    2.515075E-13    8.471428E-15
         1.998796E-16    3.217399E-18    1.513471E-20   -1.174178E-21   -5.485790E-23   -1.571664E-24   -3.479816E-26   -6.338551E-28   -9.890552E-30   -1.382925E-31
        -1.848791E-33
   7    -1.778284E-31   -1.112282E-29   -6.552686E-28   -3.442636E-26   -1.544612E-24   -5.519651E-23   -1.206905E-21    2.469734E-20    4.871355E-18    3.577044E-16
         1.848501E-14    6.984361E-13    1.900544E-11    3.547930E-10    4.074644E-09    2.101787E-08    4.074644E-09    3.547930E-10    1.900544E-11    6.984362E-13
         1.848505E-14    3.577140E-16    4.872937E-18    2.484361E-20   -1.198503E-21   -5.484840E-23   -1.533507E-24   -3.414064E-26   -6.490887E-28   -1.100578E-29
        -1.757779E-31
   8    -1.213257E-29   -6.504487E-28   -3.241809E-26   -1.422519E-24   -5.137031E-23   -1.181361E-21    2.469734E-20    5.578556E-18    4.747070E-16    2.901605E-14
         1.330976E-12    4.550477E-11    1.130431E-09    1.945109E-08    2.084451E-07    1.011890E-06    2.084451E-07    1.945109E-08    1.130431E-09    4.550477E-11
         1.330976E-12    2.901611E-14    4.747215E-16    5.580478E-18    2.484853E-20   -1.173732E-21   -5.108156E-23   -1.413785E-24   -3.219725E-26   -6.455921E-28
        -1.203471E-29
   9    -6.079063E-28   -2.836181E-26   -1.210817E-24   -4.388823E-23   -1.088885E-21    1.502935E-20    4.871355E-18    4.747070E-16    3.363005E-14    1.818354E-12
         7.471953E-11    2.292411E-09    5.122201E-08    7.990270E-07    7.875422E-06    3.557279E-05    7.875422E-06    7.990270E-07    5.122201E-08    2.292411E-09
         7.471953E-11    1.818354E-12    3.363013E-14    4.747221E-16    4.873055E-18    1.514557E-20   -1.083556E-21   -4.369833E-23   -1.205239E-24   -2.822083E-26
        -6.046737E-28
  10    -2.252875E-26   -9.231252E-25   -3.356903E-23   -9.065027E-22    2.507655E-21    3.216457E-18    3.577044E-16    2.901605E-14    1.818354E-12    8.776414E-11
         3.202709E-09    8.658984E-08    1.698682E-06    2.341662E-05    2.077517E-04    8.593764E-04    2.077517E-04    2.341662E-05    1.698682E-06    8.658984E-08
         3.202709E-09    8.776414E-11    1.818354E-12    2.901612E-14    3.577151E-16    3.217540E-18    2.572946E-21   -9.037068E-22   -3.347317E-23   -9.203463E-25
        -2.245654E-26
  11    -6.163590E-25   -2.218644E-23   -6.494011E-22   -5.430503E-21    1.529008E-18    1.998752E-16    1.848501E-14    1.330976E-12    7.471953E-11    3.202709E-09
         1.022194E-07    2.373505E-06    3.947445E-05    4.627135E-04    3.576249E-03    1.323747E-02    3.576249E-03    4.627135E-04    3.947445E-05    2.373505E-06
         1.022194E-07    3.202709E-09    7.471953E-11    1.330976E-12    1.848505E-14    1.998804E-16    1.529488E-18   -5.404486E-21   -6.483402E-22   -2.215092E-23
        -6.153118E-25
  12    -1.233526E-23   -3.811394E-22   -6.694976E-21    4.557943E-19    8.004901E-17    8.471412E-15    6.984361E-13    4.550477E-11    2.292411E-09    8.658984E-08
         2.373505E-06    4.591772E-05    6.179023E-04    5.819461E-03    3.728443E-02    0.119312        3.728443E-02    5.819461E-03    6.179023E-04    4.591772E-05
         2.373505E-06    8.658984E-08    2.292411E-09    4.550477E-11    6.984362E-13    8.471430E-15    8.005084E-17    4.559366E-19   -6.687842E-21   -3.808603E-22
        -1.232589E-23
  13    -1.777303E-22   -4.272833E-21    5.065744E-20    2.152523E-17    2.665361E-15    2.515074E-13    1.900544E-11    1.130431E-09    5.122201E-08    1.698682E-06
         3.947445E-05    6.179023E-04    6.397944E-03    4.489450E-02    0.222027        0.584919        0.222027        4.489450E-02    6.397944E-03    6.179023E-04
         3.947445E-05    1.698682E-06    5.122201E-08    1.130431E-09    1.900544E-11    2.515075E-13    2.665368E-15    2.152570E-17    5.068702E-20   -4.271493E-21
        -1.776796E-22
  14    -1.779406E-21   -2.138809E-20    3.318871E-18    5.309433E-16    5.771517E-14    5.048991E-12    3.547930E-10    1.945109E-08    7.990270E-07    2.341662E-05
         4.627135E-04    5.819461E-03    4.489450E-02    0.219468        0.765937         1.55968        0.765937        0.219468        4.489450E-02    5.819461E-03
         4.627135E-04    2.341662E-05    7.990270E-07    1.945109E-08    3.547930E-10    5.048991E-12    5.771519E-14    5.309447E-16    3.318955E-18   -2.138380E-20
        -1.779232E-21
  15    -1.104928E-20    1.372458E-19    5.670420E-17    7.365266E-15    7.452676E-13    6.157396E-11    4.074644E-09    2.084451E-07    7.875422E-06    2.077517E-04
         3.576249E-03    3.728443E-02    0.222027        0.765937         1.90072         2.54908         1.90072        0.765937        0.222027        3.728443E-02
         3.576249E-03    2.077517E-04    7.875422E-06    2.084451E-07    4.074644E-09    6.157396E-11    7.452676E-13    7.365268E-15    5.670434E-17    1.372530E-19
        -1.104898E-20
  16    -3.991168E-20    1.768213E-18    3.692191E-16    4.408236E-14    4.248521E-12    3.347224E-10    2.101787E-08    1.011890E-06    3.557279E-05    8.593764E-04
         1.323747E-02    0.119312        0.584919         1.55968         2.54908         3.24723         2.54908         1.55968        0.584919        0.119312    
         1.323747E-02    8.593764E-04    3.557279E-05    1.011890E-06    2.101787E-08    3.347224E-10    4.248521E-12    4.408236E-14    3.692191E-16    1.768213E-18
        -3.991168E-20
  17    -1.104901E-20    1.372522E-19    5.670432E-17    7.365268E-15    7.452676E-13    6.157396E-11    4.074644E-09    2.084451E-07    7.875422E-06    2.077517E-04
         3.576249E-03    3.728443E-02    0.222027        0.765937         1.90072         2.54908         1.90072        0.765937        0.222027        3.728443E-02
         3.576249E-03    2.077517E-04    7.875422E-06    2.084451E-07    4.074644E-09    6.157396E-11    7.452676E-13    7.365266E-15    5.670420E-17    1.372458E-19
        -1.104928E-20
  18    -1.779261E-21   -2.138449E-20    3.318942E-18    5.309445E-16    5.771518E-14    5.048991E-12    3.547930E-10    1.945109E-08    7.990270E-07    2.341662E-05
         4.627135E-04    5.819461E-03    4.489450E-02    0.219468        0.765937         1.55968        0.765937        0.219468        4.489450E-02    5.819461E-03
         4.627135E-04    2.341662E-05    7.990270E-07    1.945109E-08    3.547930E-10    5.048991E-12    5.771517E-14    5.309433E-16    3.318871E-18   -2.138809E-20
        -1.779406E-21
  19    -1.776904E-22   -4.271770E-21    5.068114E-20    2.152562E-17    2.665367E-15    2.515075E-13    1.900544E-11    1.130431E-09    5.122201E-08    1.698682E-06
         3.947445E-05    6.179023E-04    6.397944E-03    4.489450E-02    0.222027        0.584919        0.222027        4.489450E-02    6.397944E-03    6.179023E-04
         3.947445E-05    1.698682E-06    5.122201E-08    1.130431E-09    1.900544E-11    2.515074E-13    2.665361E-15    2.152523E-17    5.065745E-20   -4.272833E-21
        -1.777303E-22
  20    -1.232801E-23   -3.809222E-22   -6.689381E-21    4.559073E-19    8.005050E-17    8.471428E-15    6.984362E-13    4.550477E-11    2.292411E-09    8.658984E-08
         2.373505E-06    4.591772E-05    6.179023E-04    5.819461E-03    3.728443E-02    0.119312        3.728443E-02    5.819461E-03    6.179023E-04    4.591772E-05
         2.373505E-06    8.658984E-08    2.292411E-09    4.550477E-11    6.984361E-13    8.471412E-15    8.004901E-17    4.557943E-19   -6.694976E-21   -3.811394E-22
        -1.233526E-23
  21    -6.155341E-25   -2.215826E-23   -6.485519E-22   -5.409452E-21    1.529402E-18    1.998796E-16    1.848505E-14    1.330976E-12    7.471953E-11    3.202709E-09
         1.022194E-07    2.373505E-06    3.947445E-05    4.627135E-04    3.576249E-03    1.323747E-02    3.576249E-03    4.627135E-04    3.947445E-05    2.373505E-06
         1.022194E-07    3.202709E-09    7.471953E-11    1.330976E-12    1.848501E-14    1.998752E-16    1.529008E-18   -5.430503E-21   -6.494011E-22   -2.218644E-23
        -6.163590E-25
  22    -2.247008E-26   -9.208458E-25   -3.348956E-23   -9.041554E-22    2.563322E-21    3.217399E-18    3.577140E-16    2.901611E-14    1.818354E-12    8.776414E-11
         3.202709E-09    8.658984E-08    1.698682E-06    2.341662E-05    2.077517E-04    8.593764E-04    2.077517E-04    2.341662E-05    1.698682E-06    8.658984E-08
         3.202709E-09    8.776414E-11    1.818354E-12    2.901605E-14    3.577044E-16    3.216457E-18    2.507655E-21   -9.065027E-22   -3.356903E-23   -9.231252E-25
        -2.252875E-26
  23    -6.051928E-28   -2.824212E-26   -1.206021E-24   -4.372257E-23   -1.084155E-21    1.513471E-20    4.872937E-18    4.747215E-16    3.363013E-14    1.818354E-12
         7.471953E-11    2.292411E-09    5.122201E-08    7.990270E-07    7.875422E-06    3.557279E-05    7.875422E-06    7.990270E-07    5.122201E-08    2.292411E-09
         7.471953E-11    1.818354E-12    3.363005E-14    4.747070E-16    4.871355E-18    1.502935E-20   -1.088885E-21   -4.388823E-23   -1.210817E-24   -2.836181E-26
        -6.079063E-28
  24    -1.204789E-29   -6.461919E-28   -3.222178E-26   -1.414629E-24   -5.110448E-23   -1.174178E-21    2.484361E-20    5.580478E-18    4.747221E-16    2.901612E-14
         1.330976E-12    4.550477E-11    1.130431E-09    1.945109E-08    2.084451E-07    1.011890E-06    2.084451E-07    1.945109E-08    1.130431E-09    4.550477E-11
         1.330976E-12    2.901605E-14    4.747070E-16    5.578556E-18    2.469734E-20   -1.181361E-21   -5.137031E-23   -1.422519E-24   -3.241809E-26   -6.504487E-28
        -1.213257E-29
  25    -1.760050E-31   -1.101726E-29   -6.496095E-28   -3.416017E-26   -1.534059E-24   -5.485790E-23   -1.198503E-21    2.484853E-20    4.873055E-18    3.577151E-16
         1.848505E-14    6.984362E-13    1.900544E-11    3.547930E-10    4.074644E-09    2.101787E-08    4.074644E-09    3.547930E-10    1.900544E-11    6.984361E-13
         1.848501E-14    3.577044E-16    4.871355E-18    2.469734E-20   -1.206905E-21   -5.519651E-23   -1.544612E-24   -3.442636E-26   -6.552686E-28   -1.112282E-29
        -1.778284E-31
  26    -1.851460E-33   -1.384430E-31   -9.898079E-30   -6.341516E-28   -3.480557E-26   -1.571664E-24   -5.484840E-23   -1.173732E-21    1.514557E-20    3.217540E-18
         1.998804E-16    8.471430E-15    2.515075E-13    5.048991E-12    6.157396E-11    3.347224E-10    6.157396E-11    5.048991E-12    2.515074E-13    8.471412E-15
         1.998752E-16    3.216457E-18    1.502935E-20   -1.181361E-21   -5.519651E-23   -1.583452E-24   -3.511561E-26   -6.407391E-28   -1.001578E-29   -1.402936E-31
        -1.878718E-33
  27    -1.352446E-35   -1.254253E-33   -1.134223E-31   -9.163611E-30   -6.255164E-28   -3.479816E-26   -1.533507E-24   -5.108156E-23   -1.083556E-21    2.572946E-21
         1.529488E-18    8.005084E-17    2.665368E-15    5.771519E-14    7.452676E-13    4.248521E-12    7.452676E-13    5.771517E-14    2.665361E-15    8.004901E-17
         1.529008E-18    2.507655E-21   -1.088885E-21   -5.137031E-23   -1.544612E-24   -3.511561E-26   -6.325097E-28   -9.286460E-30   -1.152145E-31   -1.277193E-33
        -1.380394E-35
  28    -6.417324E-38   -7.896914E-36   -9.719508E-34   -1.045468E-31   -9.161046E-30   -6.338551E-28   -3.414064E-26   -1.413785E-24   -4.369833E-23   -9.037068E-22
        -5.404486E-21    4.559366E-19    2.152570E-17    5.309447E-16    7.365268E-15    4.408236E-14    7.365266E-15    5.309433E-16    2.152523E-17    4.557943E-19
        -5.430503E-21   -9.065027E-22   -4.388823E-23   -1.422519E-24   -3.442636E-26   -6.407391E-28   -9.286460E-30   -1.063197E-31   -9.921382E-34   -8.095098E-36
        -6.606764E-38
  29    -1.732310E-40   -3.271059E-38   -6.277454E-36   -9.715683E-34   -1.133508E-31   -9.890552E-30   -6.490887E-28   -3.219725E-26   -1.205239E-24   -3.347317E-23
        -6.483402E-22   -6.687842E-21    5.068702E-20    3.318955E-18    5.670434E-17    3.692191E-16    5.670420E-17    3.318871E-18    5.065745E-20   -6.694976E-21
        -6.494011E-22   -3.356903E-23   -1.210817E-24   -3.241809E-26   -6.552686E-28   -1.001578E-29   -1.152145E-31   -9.921382E-34   -6.449170E-36   -3.387324E-38
        -1.810683E-40
  30    -1.903650E-43   -8.518171E-41   -3.268884E-38   -7.889532E-36   -1.252928E-33   -1.382925E-31   -1.100578E-29   -6.455921E-28   -2.822083E-26   -9.203463E-25
        -2.215092E-23   -3.808603E-22   -4.271493E-21   -2.138380E-20    1.372530E-19    1.768213E-18    1.372458E-19   -2.138809E-20   -4.272833E-21   -3.811394E-22
        -2.218644E-23   -9.231252E-25   -2.836181E-26   -6.504487E-28   -1.112282E-29   -1.402936E-31   -1.277193E-33   -8.095098E-36   -3.387324E-38   -8.978980E-41
        -2.067525E-43
  31      0.00000       -1.899800E-43   -1.729236E-40   -6.406734E-38   -1.350344E-35   -1.848791E-33   -1.757779E-31   -1.203471E-29   -6.046737E-28   -2.245654E-26
        -6.153118E-25   -1.232589E-23   -1.776796E-22   -1.779232E-21   -1.104898E-20   -3.991168E-20   -1.104928E-20   -1.779406E-21   -1.777303E-22   -1.233526E-23
        -6.163590E-25   -2.252875E-26   -6.079063E-28   -1.213257E-29   -1.778284E-31   -1.878718E-33   -1.380394E-35   -6.606764E-38   -1.810683E-40   -2.067525E-43
          0.00000    

 CONCENTRATION WILL BE SAVED ON UNIT 1030 AT END OF TIME STEP  105, STRESS PERIOD    2


  MASS BUDGET FOR ENTIRE MODEL AT END OF TIME STEP  105, STRESS PERIOD   2
  ---------------------------------------------------------------------------------------------------

     CUMULATIVE MASS      M       RATES FOR THIS TIME STEP      M/T          PACKAGE NAME    
     ------------------                 ------------------------                     ----------------

           IN:                                      IN:
           ---                                      ---
     STORAGE-AQUEOUS =  7663566837.7798       STORAGE-AQUEOUS =      280561.7726     MST                              
                 WEL =  7884000000.0000                   WEL =           0.0000     SSM_WEL-1                        
                 CHD =           0.0000                   CHD =           0.0000     SSM_CHD-1                        

            TOTAL IN = 15547566837.7798              TOTAL IN =      280561.7726

          OUT:                                     OUT:
          ----                                     ----
     STORAGE-AQUEOUS =  7888719562.8008       STORAGE-AQUEOUS =           1.2675     MST                              
                 WEL =  7658847274.9792                   WEL =      280560.5051     SSM_WEL-1                        
                 CHD =       7.5562E-18                   CHD =           0.0000     SSM_CHD-1                        

           TOTAL OUT = 15547566837.7800             TOTAL OUT =      280561.7726

            IN - OUT =      -2.0981E-04              IN - OUT =      -7.4273E-08

 PERCENT DISCREPANCY =          -0.00     PERCENT DISCREPANCY =          -0.00




         TIME SUMMARY AT END OF TIME STEP  105 IN STRESS PERIOD    2
                    SECONDS     MINUTES      HOURS       DAYS        YEARS
                    -----------------------------------------------------------
   TIME STEP LENGTH 2.16991E+06  36165.      602.75      25.115     6.87602E-02
 STRESS PERIOD TIME 2.27840E+08 3.79734E+06  63289.      2637.0      7.2198    
         TOTAL TIME 3.06680E+08 5.11134E+06  85189.      3549.5      9.7181    


end timestep


start timestep kper="2" kstp="106" mode="normal"

 UBDSV1 SAVING  STORAGE-AQUEOUS ON UNIT   1029 AT TIME STEP    106, STRESS PERIOD      2
 UBDSV1 SAVING     FLOW-JA-FACE ON UNIT   1029 AT TIME STEP    106, STRESS PERIOD      2
 UBDSV06 SAVING  SOURCE-SINK MIX IN MODEL GWT_P06-MF6      PACKAGE GWT_P06-MF6     CONNECTED TO MODEL GWT_P06-MF6      PACKAGE SSM              ON UNIT   1029 AT TIME STEP    106, STRESS PERIOD      2
1
  CONCENTRATION IN LAYER   1 AT END OF TIME STEP 106 IN STRESS PERIOD    2
  ---------------------------------------------------------------------------

                1               2               3               4               5               6               7               8               9              10
               11              12              13              14              15              16              17              18              19              20
               21              22              23              24              25              26              27              28              29              30
               31
 ................................................................................................................................................................................................................................................................................................................................................................................................................................................................................................................
   1      0.00000       -2.257146E-43   -1.933729E-40   -6.984848E-38   -1.449598E-35   -1.962292E-33   -1.848573E-31   -1.255656E-29   -6.265105E-28   -2.312396E-26
        -6.300949E-25   -1.255564E-23   -1.798921E-22   -1.784513E-21   -1.089349E-20   -3.847132E-20   -1.089322E-20   -1.784366E-21   -1.798517E-22   -1.254829E-23
        -6.292571E-25   -2.306418E-26   -6.237356E-28   -1.246964E-29   -1.829785E-31   -1.934099E-33   -1.420580E-35   -6.787382E-38   -1.851695E-40   -2.084822E-43
          0.00000    
   2    -2.257146E-43   -9.607306E-41   -3.582727E-38   -8.499986E-36   -1.333728E-33   -1.458195E-31   -1.151153E-29   -6.704378E-28   -2.911549E-26   -9.436056E-25
        -2.255851E-23   -3.841478E-22   -4.216332E-21   -1.901368E-20    1.735763E-19    1.979552E-18    1.735827E-19   -1.901007E-20   -4.215262E-21   -3.839286E-22
        -2.252997E-23   -9.412900E-25   -2.899348E-26   -6.660826E-28   -1.140316E-29   -1.439126E-31   -1.310006E-33   -8.294310E-36   -3.461612E-38   -9.125245E-41
        -2.080752E-43
   3    -1.933729E-40   -3.582727E-38   -6.771487E-36   -1.035877E-33   -1.197303E-31   -1.036460E-29   -6.753886E-28   -3.327992E-26   -1.237422E-24   -3.408568E-23
        -6.503436E-22   -6.329680E-21    6.575902E-20    3.648761E-18    6.094051E-17    3.929153E-16    6.094063E-17    3.648833E-18    6.578280E-20   -6.324050E-21
        -6.494865E-22   -3.400520E-23   -1.232548E-24   -3.307972E-26   -6.695970E-28   -1.024373E-29   -1.178837E-31   -1.015005E-33   -6.593314E-36   -3.459339E-38
        -1.848463E-40
   4    -6.984848E-38   -8.499986E-36   -1.035877E-33   -1.104768E-31   -9.608737E-30   -6.603501E-28   -3.533838E-26   -1.453318E-24   -4.449228E-23   -8.996953E-22
        -4.214812E-21    5.145482E-19    2.325868E-17    5.662334E-16    7.790916E-15    4.633589E-14    7.790918E-15    5.662346E-16    2.325906E-17    5.146613E-19
        -4.193643E-21   -8.973261E-22   -4.432447E-23   -1.445297E-24   -3.506684E-26   -6.536074E-28   -9.482577E-30   -1.086501E-31   -1.014609E-33   -8.286625E-36
        -6.776305E-38
   5    -1.449598E-35   -1.333728E-33   -1.197303E-31   -9.608737E-30   -6.518373E-28   -3.604287E-26   -1.577610E-24   -5.200008E-23   -1.069328E-21    5.207999E-21
         1.686219E-18    8.596510E-17    2.831710E-15    6.084658E-14    7.806222E-13    4.424466E-12    7.806223E-13    6.084660E-14    2.831716E-15    8.596657E-17
         1.686613E-18    5.263947E-21   -1.064553E-21   -5.173075E-23   -1.566881E-24   -3.572656E-26   -6.446789E-28   -9.479938E-30   -1.178098E-31   -1.308633E-33
        -1.418391E-35
   6    -1.962292E-33   -1.458195E-31   -1.036460E-29   -6.603501E-28   -3.604287E-26   -1.617098E-24   -5.582288E-23   -1.149460E-21    1.944707E-20    3.508469E-18
         2.139523E-16    8.977666E-15    2.644656E-13    5.273086E-12    6.391517E-11    3.455114E-10    6.391517E-11    5.273087E-12    2.644657E-13    8.977681E-15
         2.139567E-16    3.509407E-18    1.955291E-20   -1.142210E-21   -5.547977E-23   -1.605112E-24   -3.571899E-26   -6.533035E-28   -1.023598E-29   -1.437572E-31
        -1.931333E-33
   7    -1.848573E-31   -1.151153E-29   -6.753886E-28   -3.533838E-26   -1.577610E-24   -5.582288E-23   -1.169873E-21    3.029876E-20    5.290506E-18    3.822097E-16
         1.955578E-14    7.329170E-13    1.979894E-11    3.671699E-10    4.191600E-09    2.150266E-08    4.191600E-09    3.671699E-10    1.979894E-11    7.329171E-13
         1.955581E-14    3.822192E-16    5.292079E-18    3.044567E-20   -1.161391E-21   -5.547014E-23   -1.566319E-24   -3.504689E-26   -6.690635E-28   -1.139135E-29
        -1.827442E-31
   8    -1.255656E-29   -6.704378E-28   -3.327992E-26   -1.453318E-24   -5.200008E-23   -1.149460E-21    3.029876E-20    6.054098E-18    5.067884E-16    3.066474E-14
         1.394650E-12    4.730913E-11    1.166766E-09    1.994437E-08    2.124703E-07    1.025891E-06    2.124703E-07    1.994437E-08    1.166766E-09    4.730913E-11
         1.394650E-12    3.066481E-14    5.068027E-16    6.056009E-18    3.045061E-20   -1.141759E-21   -5.170752E-23   -1.444439E-24   -3.305469E-26   -6.654684E-28
        -1.245610E-29
   9    -6.265105E-28   -2.911549E-26   -1.237422E-24   -4.449228E-23   -1.069328E-21    1.944707E-20    5.290506E-18    5.067884E-16    3.552847E-14    1.903893E-12
         7.757959E-11    2.361296E-09    5.237385E-08    8.116074E-07    7.952958E-06    3.573575E-05    7.952958E-06    8.116074E-07    5.237385E-08    2.361296E-09
         7.757959E-11    1.903893E-12    3.552855E-14    5.068033E-16    5.292196E-18    1.956382E-20   -1.063948E-21   -4.429991E-23   -1.231753E-24   -2.897176E-26
        -6.232043E-28
  10    -2.312396E-26   -9.436056E-25   -3.408568E-23   -8.996953E-22    5.207999E-21    3.508469E-18    3.822097E-16    3.066474E-14    1.903893E-12    9.108161E-11
         3.295278E-09    8.836340E-08    1.720421E-06    2.355925E-05    2.078330E-04    8.554374E-04    2.078330E-04    2.355925E-05    1.720421E-06    8.836340E-08
         3.295278E-09    9.108161E-11    1.903893E-12    3.066481E-14    3.822203E-16    3.509547E-18    5.273617E-21   -8.968734E-22   -3.398860E-23   -9.407825E-25
        -2.305039E-26
  11    -6.300949E-25   -2.255851E-23   -6.503436E-22   -4.214812E-21    1.686219E-18    2.139523E-16    1.955578E-14    1.394650E-12    7.757959E-11    3.295278E-09
         1.042392E-07    2.399785E-06    3.960147E-05    4.611232E-04    3.544634E-03    1.306027E-02    3.544634E-03    4.611232E-04    3.960147E-05    2.399785E-06
         1.042392E-07    3.295278E-09    7.757959E-11    1.394650E-12    1.955582E-14    2.139575E-16    1.686699E-18   -4.188652E-21   -6.492729E-22   -2.252255E-23
        -6.290314E-25
  12    -1.255564E-23   -3.841478E-22   -6.329680E-21    5.145482E-19    8.596510E-17    8.977666E-15    7.329170E-13    4.730913E-11    2.361296E-09    8.836340E-08
         2.399785E-06    4.601466E-05    6.142399E-04    5.746917E-03    3.663634E-02    0.116777        3.663634E-02    5.746917E-03    6.142399E-04    4.601466E-05
         2.399785E-06    8.836340E-08    2.361296E-09    4.730913E-11    7.329171E-13    8.977684E-15    8.596691E-17    5.146907E-19   -6.322502E-21   -3.838661E-22
        -1.254614E-23
  13    -1.798921E-22   -4.216332E-21    6.575902E-20    2.325868E-17    2.831710E-15    2.644656E-13    1.979894E-11    1.166766E-09    5.237385E-08    1.720421E-06
         3.960147E-05    6.142399E-04    6.308172E-03    4.398324E-02    0.216605        0.568983        0.216605        4.398324E-02    6.308172E-03    6.142399E-04
         3.960147E-05    1.720421E-06    5.237385E-08    1.166766E-09    1.979894E-11    2.644657E-13    2.831717E-15    2.325914E-17    6.578869E-20   -4.214982E-21
        -1.798408E-22
  14    -1.784513E-21   -1.901368E-20    3.648761E-18    5.662334E-16    6.084658E-14    5.273086E-12    3.671699E-10    1.994437E-08    8.116074E-07    2.355925E-05
         4.611232E-04    5.746917E-03    4.398324E-02    0.213756        0.743585         1.51170        0.743585        0.213756        4.398324E-02    5.746917E-03
         4.611232E-04    2.355925E-05    8.116074E-07    1.994437E-08    3.671699E-10    5.273087E-12    6.084660E-14    5.662348E-16    3.648846E-18   -1.900937E-20
        -1.784337E-21
  15    -1.089349E-20    1.735763E-19    6.094051E-17    7.790916E-15    7.806222E-13    6.391517E-11    4.191600E-09    2.124703E-07    7.952958E-06    2.078330E-04
         3.544634E-03    3.663634E-02    0.216605        0.743585         1.84040         2.46690         1.84040        0.743585        0.216605        3.663634E-02
         3.544634E-03    2.078330E-04    7.952958E-06    2.124703E-07    4.191600E-09    6.391517E-11    7.806223E-13    7.790919E-15    6.094065E-17    1.735835E-19
        -1.089319E-20
  16    -3.847132E-20    1.979552E-18    3.929153E-16    4.633589E-14    4.424466E-12    3.455114E-10    2.150266E-08    1.025891E-06    3.573575E-05    8.554374E-04
         1.306027E-02    0.116777        0.568983         1.51170         2.46690         3.14059         2.46690         1.51170        0.568983        0.116777    
         1.306027E-02    8.554374E-04    3.573575E-05    1.025891E-06    2.150266E-08    3.455114E-10    4.424466E-12    4.633589E-14    3.929153E-16    1.979552E-18
        -3.847132E-20
  17    -1.089322E-20    1.735827E-19    6.094063E-17    7.790918E-15    7.806223E-13    6.391517E-11    4.191600E-09    2.124703E-07    7.952958E-06    2.078330E-04
         3.544634E-03    3.663634E-02    0.216605        0.743585         1.84040         2.46690         1.84040        0.743585        0.216605        3.663634E-02
         3.544634E-03    2.078330E-04    7.952958E-06    2.124703E-07    4.191600E-09    6.391517E-11    7.806222E-13    7.790916E-15    6.094051E-17    1.735763E-19
        -1.089349E-20
  18    -1.784366E-21   -1.901007E-20    3.648833E-18    5.662346E-16    6.084660E-14    5.273087E-12    3.671699E-10    1.994437E-08    8.116074E-07    2.355925E-05
         4.611232E-04    5.746917E-03    4.398324E-02    0.213756        0.743585         1.51170        0.743585        0.213756        4.398324E-02    5.746917E-03
         4.611232E-04    2.355925E-05    8.116074E-07    1.994437E-08    3.671699E-10    5.273086E-12    6.084658E-14    5.662334E-16    3.648761E-18   -1.901368E-20
        -1.784513E-21
  19    -1.798517E-22   -4.215262E-21    6.578280E-20    2.325906E-17    2.831716E-15    2.644657E-13    1.979894E-11    1.166766E-09    5.237385E-08    1.720421E-06
         3.960147E-05    6.142399E-04    6.308172E-03    4.398324E-02    0.216605        0.568983        0.216605        4.398324E-02    6.308172E-03    6.142399E-04
         3.960147E-05    1.720421E-06    5.237385E-08    1.166766E-09    1.979894E-11    2.644656E-13    2.831710E-15    2.325868E-17    6.575902E-20   -4.216332E-21
        -1.798921E-22
  20    -1.254829E-23   -3.839286E-22   -6.324050E-21    5.146613E-19    8.596657E-17    8.977681E-15    7.329171E-13    4.730913E-11    2.361296E-09    8.836340E-08
         2.399785E-06    4.601466E-05    6.142399E-04    5.746917E-03    3.663634E-02    0.116777        3.663634E-02    5.746917E-03    6.142399E-04    4.601466E-05
         2.399785E-06    8.836340E-08    2.361296E-09    4.730913E-11    7.329170E-13    8.977666E-15    8.596510E-17    5.145482E-19   -6.329680E-21   -3.841478E-22
        -1.255564E-23
  21    -6.292571E-25   -2.252997E-23   -6.494865E-22   -4.193643E-21    1.686613E-18    2.139567E-16    1.955581E-14    1.394650E-12    7.757959E-11    3.295278E-09
         1.042392E-07    2.399785E-06    3.960147E-05    4.611232E-04    3.544634E-03    1.306027E-02    3.544634E-03    4.611232E-04    3.960147E-05    2.399785E-06
         1.042392E-07    3.295278E-09    7.757959E-11    1.394650E-12    1.955578E-14    2.139523E-16    1.686219E-18   -4.214812E-21   -6.503436E-22   -2.255851E-23
        -6.300949E-25
  22    -2.306418E-26   -9.412900E-25   -3.400520E-23   -8.973261E-22    5.263947E-21    3.509407E-18    3.822192E-16    3.066481E-14    1.903893E-12    9.108161E-11
         3.295278E-09    8.836340E-08    1.720421E-06    2.355925E-05    2.078330E-04    8.554374E-04    2.078330E-04    2.355925E-05    1.720421E-06    8.836340E-08
         3.295278E-09    9.108161E-11    1.903893E-12    3.066474E-14    3.822097E-16    3.508469E-18    5.207999E-21   -8.996953E-22   -3.408568E-23   -9.436056E-25
        -2.312396E-26
  23    -6.237356E-28   -2.899348E-26   -1.232548E-24   -4.432447E-23   -1.064553E-21    1.955291E-20    5.292079E-18    5.068027E-16    3.552855E-14    1.903893E-12
         7.757959E-11    2.361296E-09    5.237385E-08    8.116074E-07    7.952958E-06    3.573575E-05    7.952958E-06    8.116074E-07    5.237385E-08    2.361296E-09
         7.757959E-11    1.903893E-12    3.552847E-14    5.067884E-16    5.290506E-18    1.944707E-20   -1.069328E-21   -4.449228E-23   -1.237422E-24   -2.911549E-26
        -6.265105E-28
  24    -1.246964E-29   -6.660826E-28   -3.307972E-26   -1.445297E-24   -5.173075E-23   -1.142210E-21    3.044567E-20    6.056009E-18    5.068033E-16    3.066481E-14
         1.394650E-12    4.730913E-11    1.166766E-09    1.994437E-08    2.124703E-07    1.025891E-06    2.124703E-07    1.994437E-08    1.166766E-09    4.730913E-11
         1.394650E-12    3.066474E-14    5.067884E-16    6.054098E-18    3.029876E-20   -1.149460E-21   -5.200008E-23   -1.453318E-24   -3.327992E-26   -6.704378E-28
        -1.255656E-29
  25    -1.829785E-31   -1.140316E-29   -6.695970E-28   -3.506684E-26   -1.566881E-24   -5.547977E-23   -1.161391E-21    3.045061E-20    5.292196E-18    3.822203E-16
         1.955582E-14    7.329171E-13    1.979894E-11    3.671699E-10    4.191600E-09    2.150266E-08    4.191600E-09    3.671699E-10    1.979894E-11    7.329170E-13
         1.955578E-14    3.822097E-16    5.290506E-18    3.029876E-20   -1.169873E-21   -5.582288E-23   -1.577610E-24   -3.533838E-26   -6.753886E-28   -1.151153E-29
        -1.848573E-31
  26    -1.934099E-33   -1.439126E-31   -1.024373E-29   -6.536074E-28   -3.572656E-26   -1.605112E-24   -5.547014E-23   -1.141759E-21    1.956382E-20    3.509547E-18
         2.139575E-16    8.977684E-15    2.644657E-13    5.273087E-12    6.391517E-11    3.455114E-10    6.391517E-11    5.273086E-12    2.644656E-13    8.977666E-15
         2.139523E-16    3.508469E-18    1.944707E-20   -1.149460E-21   -5.582288E-23   -1.617098E-24   -3.604287E-26   -6.603501E-28   -1.036460E-29   -1.458195E-31
        -1.962292E-33
  27    -1.420580E-35   -1.310006E-33   -1.178837E-31   -9.482577E-30   -6.446789E-28   -3.571899E-26   -1.566319E-24   -5.170752E-23   -1.063948E-21    5.273617E-21
         1.686699E-18    8.596691E-17    2.831717E-15    6.084660E-14    7.806223E-13    4.424466E-12    7.806222E-13    6.084658E-14    2.831710E-15    8.596510E-17
         1.686219E-18    5.207999E-21   -1.069328E-21   -5.200008E-23   -1.577610E-24   -3.604287E-26   -6.518373E-28   -9.608737E-30   -1.197303E-31   -1.333728E-33
        -1.449598E-35
  28    -6.787382E-38   -8.294310E-36   -1.015005E-33   -1.086501E-31   -9.479938E-30   -6.533035E-28   -3.504689E-26   -1.444439E-24   -4.429991E-23   -8.968734E-22
        -4.188652E-21    5.146907E-19    2.325914E-17    5.662348E-16    7.790919E-15    4.633589E-14    7.790916E-15    5.662334E-16    2.325868E-17    5.145482E-19
        -4.214812E-21   -8.996953E-22   -4.449228E-23   -1.453318E-24   -3.533838E-26   -6.603501E-28   -9.608737E-30   -1.104768E-31   -1.035877E-33   -8.499986E-36
        -6.984848E-38
  29    -1.851695E-40   -3.461612E-38   -6.593314E-36   -1.014609E-33   -1.178098E-31   -1.023598E-29   -6.690635E-28   -3.305469E-26   -1.231753E-24   -3.398860E-23
        -6.492729E-22   -6.322502E-21    6.578869E-20    3.648846E-18    6.094065E-17    3.929153E-16    6.094051E-17    3.648761E-18    6.575902E-20   -6.329680E-21
        -6.503436E-22   -3.408568E-23   -1.237422E-24   -3.327992E-26   -6.753886E-28   -1.036460E-29   -1.197303E-31   -1.035877E-33   -6.771487E-36   -3.582727E-38
        -1.933729E-40
  30    -2.084822E-43   -9.125245E-41   -3.459339E-38   -8.286625E-36   -1.308633E-33   -1.437572E-31   -1.139135E-29   -6.654684E-28   -2.897176E-26   -9.407825E-25
        -2.252255E-23   -3.838661E-22   -4.214982E-21   -1.900937E-20    1.735835E-19    1.979552E-18    1.735763E-19   -1.901368E-20   -4.216332E-21   -3.841478E-22
        -2.255851E-23   -9.436056E-25   -2.911549E-26   -6.704378E-28   -1.151153E-29   -1.458195E-31   -1.333728E-33   -8.499986E-36   -3.582727E-38   -9.607306E-41
        -2.257146E-43
  31      0.00000       -2.080752E-43   -1.848463E-40   -6.776305E-38   -1.418391E-35   -1.931333E-33   -1.827442E-31   -1.245610E-29   -6.232043E-28   -2.305039E-26
        -6.290314E-25   -1.254614E-23   -1.798408E-22   -1.784337E-21   -1.089319E-20   -3.847132E-20   -1.089349E-20   -1.784513E-21   -1.798921E-22   -1.255564E-23
        -6.300949E-25   -2.312396E-26   -6.265105E-28   -1.255656E-29   -1.848573E-31   -1.962292E-33   -1.449598E-35   -6.984848E-38   -1.933729E-40   -2.257146E-43
          0.00000    

 CONCENTRATION WILL BE SAVED ON UNIT 1030 AT END OF TIME STEP  106, STRESS PERIOD    2


  MASS BUDGET FOR ENTIRE MODEL AT END OF TIME STEP  106, STRESS PERIOD   2
  ---------------------------------------------------------------------------------------------------

     CUMULATIVE MASS      M       RATES FOR THIS TIME STEP      M/T          PACKAGE NAME    
     ------------------                 ------------------------                     ----------------

           IN:                                      IN:
           ---                                      ---
     STORAGE-AQUEOUS =  7670381667.3453       STORAGE-AQUEOUS =      271348.4649     MST                              
                 WEL =  7884000000.0000                   WEL =           0.0000     SSM_WEL-1                        
                 CHD =           0.0000                   CHD =           0.0000     SSM_CHD-1                        

            TOTAL IN = 15554381667.3453              TOTAL IN =      271348.4649

          OUT:                                     OUT:
          ----                                     ----
     STORAGE-AQUEOUS =  7888719591.6057       STORAGE-AQUEOUS =           1.1469     MST                              
                 WEL =  7665662075.7398                   WEL =      271347.3180     SSM_WEL-1                        
                 CHD =       7.5562E-18                   CHD =           0.0000     SSM_CHD-1                        

           TOTAL OUT = 15554381667.3455             TOTAL OUT =      271348.4649

            IN - OUT =      -2.1362E-04              IN - OUT =      -7.1770E-08

 PERCENT DISCREPANCY =          -0.00     PERCENT DISCREPANCY =          -0.00




         TIME SUMMARY AT END OF TIME STEP  106 IN STRESS PERIOD    2
                    SECONDS     MINUTES      HOURS       DAYS        YEARS
                    -----------------------------------------------------------
   TIME STEP LENGTH 2.16991E+06  36165.      602.75      25.115     6.87602E-02
 STRESS PERIOD TIME 2.30010E+08 3.83350E+06  63892.      2662.2      7.2886    
         TOTAL TIME 3.08850E+08 5.14750E+06  85792.      3574.7      9.7869    


end timestep


start timestep kper="2" kstp="107" mode="normal"

 UBDSV1 SAVING  STORAGE-AQUEOUS ON UNIT   1029 AT TIME STEP    107, STRESS PERIOD      2
 UBDSV1 SAVING     FLOW-JA-FACE ON UNIT   1029 AT TIME STEP    107, STRESS PERIOD      2
 UBDSV06 SAVING  SOURCE-SINK MIX IN MODEL GWT_P06-MF6      PACKAGE GWT_P06-MF6     CONNECTED TO MODEL GWT_P06-MF6      PACKAGE SSM              ON UNIT   1029 AT TIME STEP    107, STRESS PERIOD      2
1
  CONCENTRATION IN LAYER   1 AT END OF TIME STEP 107 IN STRESS PERIOD    2
  ---------------------------------------------------------------------------

                1               2               3               4               5               6               7               8               9              10
               11              12              13              14              15              16              17              18              19              20
               21              22              23              24              25              26              27              28              29              30
               31
 ................................................................................................................................................................................................................................................................................................................................................................................................................................................................................................................
   1      0.00000       -2.459596E-43   -2.063756E-40   -7.381668E-38   -1.521838E-35   -2.049118E-33   -1.921275E-31   -1.299326E-29   -6.455928E-28   -2.373179E-26
        -6.440434E-25   -1.277720E-23   -1.820048E-22   -1.788001E-21   -1.071508E-20   -3.690872E-20   -1.071481E-20   -1.787853E-21   -1.819641E-22   -1.276977E-23
        -6.431927E-25   -2.367088E-26   -6.427552E-28   -1.290405E-29   -1.901920E-31   -2.019963E-33   -1.491714E-35   -7.175873E-38   -1.977909E-40   -2.278433E-43
          0.00000    
   2    -2.459596E-43   -1.027145E-40   -3.787791E-38   -8.922550E-36   -1.392454E-33   -1.515349E-31   -1.191193E-29   -6.909414E-28   -2.988493E-26   -9.643679E-25
        -2.292959E-23   -3.868851E-22   -4.149709E-21   -1.643087E-20    2.124212E-19    2.203029E-18    2.124277E-19   -1.642723E-20   -4.148631E-21   -3.866637E-22
        -2.290070E-23   -9.620157E-25   -2.976055E-26   -6.864860E-28   -1.180066E-29   -1.495702E-31   -1.367927E-33   -8.709131E-36   -3.661646E-38   -9.767261E-41
        -2.274133E-43
   3    -2.063756E-40   -3.787791E-38   -7.107845E-36   -1.081305E-33   -1.244006E-31   -1.072387E-29   -6.960256E-28   -3.415947E-26   -1.264340E-24   -3.459486E-23
        -6.503944E-22   -5.923788E-21    8.200522E-20    3.999121E-18    6.540707E-17    4.177446E-16    6.540719E-17    3.999192E-18    8.202909E-20   -5.918123E-21
        -6.495294E-22   -3.451336E-23   -1.259388E-24   -3.395530E-26   -6.900991E-28   -1.059976E-29   -1.224980E-31   -1.059728E-33   -6.922996E-36   -3.659269E-38
        -1.974512E-40
   4    -7.381668E-38   -8.922550E-36   -1.081305E-33   -1.147758E-31   -9.940657E-30   -6.804632E-28   -3.626879E-26   -1.484416E-24   -4.507800E-23   -8.908373E-22
        -2.889561E-21    5.774584E-19    2.509470E-17    6.033384E-16    8.235532E-15    4.867569E-14    8.235534E-15    6.033396E-16    2.509508E-17    5.775718E-19
        -2.868275E-21   -8.884463E-22   -4.490803E-23   -1.476264E-24   -3.599182E-26   -6.735624E-28   -9.811110E-30   -1.128938E-31   -1.059317E-33   -8.701132E-36
        -7.164288E-38
   5    -1.521838E-35   -1.392454E-33   -1.244006E-31   -9.940657E-30   -6.716591E-28   -3.698861E-26   -1.610877E-24   -5.259967E-23   -1.046219E-21    8.129886E-21
         1.845294E-18    9.221749E-17    3.006180E-15    6.410798E-14    8.172079E-13    4.605440E-12    8.172079E-13    6.410800E-14    3.006186E-15    9.221896E-17
         1.845687E-18    8.186108E-21   -1.041400E-21   -5.232681E-23   -1.599968E-24   -3.666593E-26   -6.643324E-28   -9.808396E-30   -1.224218E-31   -1.366504E-33
        -1.489436E-35
   6    -2.049118E-33   -1.515349E-31   -1.072387E-29   -6.804632E-28   -3.698861E-26   -1.650998E-24   -5.641132E-23   -1.112704E-21    2.421652E-20    3.811927E-18
         2.288202E-16    9.507502E-15    2.779258E-13    5.504235E-12    6.631425E-11    3.564984E-10    6.631425E-11    5.504235E-12    2.779258E-13    9.507517E-15
         2.288246E-16    3.812860E-18    2.432284E-20   -1.105385E-21   -5.606368E-23   -1.638811E-24   -3.665820E-26   -6.732510E-28   -1.059180E-29   -1.494098E-31
        -2.017097E-33
   7    -1.921275E-31   -1.191193E-29   -6.960256E-28   -3.626879E-26   -1.610877E-24   -5.641132E-23   -1.127464E-21    3.634213E-20    5.736395E-18    4.080330E-16
         2.067455E-14    7.686520E-13    2.061496E-11    3.798053E-10    4.310173E-09    2.199084E-08    4.310173E-09    3.798053E-10    2.061496E-11    7.686522E-13
         2.067459E-14    4.080425E-16    5.737958E-18    3.648967E-20   -1.118903E-21   -5.605392E-23   -1.599397E-24   -3.597146E-26   -6.895525E-28   -1.178852E-29
        -1.899502E-31
   8    -1.299326E-29   -6.909414E-28   -3.415947E-26   -1.484416E-24   -5.259967E-23   -1.112704E-21    3.634213E-20    6.559797E-18    5.405744E-16    3.238552E-14
         1.460528E-12    4.916003E-11    1.203730E-09    2.044219E-08    2.165003E-07    1.039787E-06    2.165003E-07    2.044219E-08    1.203730E-09    4.916003E-11
         1.460528E-12    3.238558E-14    5.405886E-16    6.561696E-18    3.649463E-20   -1.104931E-21   -5.230327E-23   -1.475391E-24   -3.392976E-26   -6.858571E-28
        -1.289014E-29
   9    -6.455928E-28   -2.988493E-26   -1.264340E-24   -4.507800E-23   -1.046219E-21    2.421652E-20    5.736395E-18    5.405744E-16    3.750915E-14    1.992312E-12
         8.050838E-11    2.431174E-09    5.353119E-08    8.241206E-07    8.029109E-06    3.589164E-05    8.029109E-06    8.241206E-07    5.353119E-08    2.431174E-09
         8.050838E-11    1.992312E-12    3.750923E-14    5.405891E-16    5.738074E-18    2.433380E-20   -1.040789E-21   -4.488314E-23   -1.258579E-24   -2.973840E-26
        -6.422117E-28
  10    -2.373179E-26   -9.643679E-25   -3.459486E-23   -8.908373E-22    8.129886E-21    3.811927E-18    4.080330E-16    3.238552E-14    1.992312E-12    9.447672E-11
         3.389027E-09    9.013932E-08    1.741895E-06    2.369680E-05    2.078737E-04    8.513926E-04    2.078737E-04    2.369680E-05    1.741895E-06    9.013932E-08
         3.389027E-09    9.447672E-11    1.992312E-12    3.238558E-14    4.080436E-16    3.812999E-18    8.195823E-21   -8.879894E-22   -3.449655E-23   -9.615000E-25
        -2.365681E-26
  11    -6.440434E-25   -2.292959E-23   -6.503944E-22   -2.889561E-21    1.845294E-18    2.288202E-16    2.067455E-14    1.460528E-12    8.050838E-11    3.389027E-09
         1.062591E-07    2.425609E-06    3.971936E-05    4.594575E-04    3.512878E-03    1.288452E-02    3.512878E-03    4.594575E-04    3.971936E-05    2.425609E-06
         1.062591E-07    3.389027E-09    8.050838E-11    1.460528E-12    2.067459E-14    2.288254E-16    1.845773E-18   -2.863260E-21   -6.493139E-22   -2.289319E-23
        -6.429635E-25
  12    -1.277720E-23   -3.868851E-22   -5.923788E-21    5.774584E-19    9.221749E-17    9.507502E-15    7.686520E-13    4.916003E-11    2.431174E-09    9.013932E-08
         2.425609E-06    4.610087E-05    6.104984E-04    5.674722E-03    3.599798E-02    0.114295        3.599798E-02    5.674722E-03    6.104984E-04    4.610087E-05
         2.425609E-06    9.013932E-08    2.431174E-09    4.916003E-11    7.686522E-13    9.507520E-15    9.221929E-17    5.776011E-19   -5.916567E-21   -3.866007E-22
        -1.276759E-23
  13    -1.820048E-22   -4.149709E-21    8.200522E-20    2.509470E-17    3.006180E-15    2.779258E-13    2.061496E-11    1.203730E-09    5.353119E-08    1.741895E-06
         3.971936E-05    6.104984E-04    6.219100E-03    4.308949E-02    0.211322        0.553515        0.211322        4.308949E-02    6.219100E-03    6.104984E-04
         3.971936E-05    1.741895E-06    5.353119E-08    1.203730E-09    2.061496E-11    2.779259E-13    3.006187E-15    2.509517E-17    8.203499E-20   -4.148350E-21
        -1.819531E-22
  14    -1.788001E-21   -1.643087E-20    3.999121E-18    6.033384E-16    6.410798E-14    5.504235E-12    3.798053E-10    2.044219E-08    8.241206E-07    2.369680E-05
         4.594575E-04    5.674722E-03    4.308949E-02    0.208200        0.721935         1.46532        0.721935        0.208200        4.308949E-02    5.674722E-03
         4.594575E-04    2.369680E-05    8.241206E-07    2.044219E-08    3.798053E-10    5.504235E-12    6.410800E-14    6.033398E-16    3.999205E-18   -1.642654E-20
        -1.787824E-21
  15    -1.071508E-20    2.124212E-19    6.540707E-17    8.235532E-15    8.172079E-13    6.631425E-11    4.310173E-09    2.165003E-07    8.029109E-06    2.078737E-04
         3.512878E-03    3.599798E-02    0.211322        0.721935         1.78212         2.38756         1.78212        0.721935        0.211322        3.599798E-02
         3.512878E-03    2.078737E-04    8.029109E-06    2.165003E-07    4.310173E-09    6.631425E-11    8.172079E-13    8.235535E-15    6.540721E-17    2.124285E-19
        -1.071478E-20
  16    -3.690872E-20    2.203029E-18    4.177446E-16    4.867569E-14    4.605440E-12    3.564984E-10    2.199084E-08    1.039787E-06    3.589164E-05    8.513926E-04
         1.288452E-02    0.114295        0.553515         1.46532         2.38756         3.03771         2.38756         1.46532        0.553515        0.114295    
         1.288452E-02    8.513926E-04    3.589164E-05    1.039787E-06    2.199084E-08    3.564984E-10    4.605440E-12    4.867569E-14    4.177446E-16    2.203029E-18
        -3.690872E-20
  17    -1.071481E-20    2.124277E-19    6.540719E-17    8.235534E-15    8.172079E-13    6.631425E-11    4.310173E-09    2.165003E-07    8.029109E-06    2.078737E-04
         3.512878E-03    3.599798E-02    0.211322        0.721935         1.78212         2.38756         1.78212        0.721935        0.211322        3.599798E-02
         3.512878E-03    2.078737E-04    8.029109E-06    2.165003E-07    4.310173E-09    6.631425E-11    8.172079E-13    8.235532E-15    6.540707E-17    2.124212E-19
        -1.071508E-20
  18    -1.787853E-21   -1.642723E-20    3.999192E-18    6.033396E-16    6.410800E-14    5.504235E-12    3.798053E-10    2.044219E-08    8.241206E-07    2.369680E-05
         4.594575E-04    5.674722E-03    4.308949E-02    0.208200        0.721935         1.46532        0.721935        0.208200        4.308949E-02    5.674722E-03
         4.594575E-04    2.369680E-05    8.241206E-07    2.044219E-08    3.798053E-10    5.504235E-12    6.410798E-14    6.033384E-16    3.999121E-18   -1.643087E-20
        -1.788001E-21
  19    -1.819641E-22   -4.148631E-21    8.202909E-20    2.509508E-17    3.006186E-15    2.779258E-13    2.061496E-11    1.203730E-09    5.353119E-08    1.741895E-06
         3.971936E-05    6.104984E-04    6.219100E-03    4.308949E-02    0.211322        0.553515        0.211322        4.308949E-02    6.219100E-03    6.104984E-04
         3.971936E-05    1.741895E-06    5.353119E-08    1.203730E-09    2.061496E-11    2.779258E-13    3.006180E-15    2.509470E-17    8.200522E-20   -4.149709E-21
        -1.820048E-22
  20    -1.276977E-23   -3.866637E-22   -5.918123E-21    5.775718E-19    9.221896E-17    9.507517E-15    7.686522E-13    4.916003E-11    2.431174E-09    9.013932E-08
         2.425609E-06    4.610087E-05    6.104984E-04    5.674722E-03    3.599798E-02    0.114295        3.599798E-02    5.674722E-03    6.104984E-04    4.610087E-05
         2.425609E-06    9.013932E-08    2.431174E-09    4.916003E-11    7.686520E-13    9.507502E-15    9.221749E-17    5.774584E-19   -5.923788E-21   -3.868851E-22
        -1.277720E-23
  21    -6.431927E-25   -2.290070E-23   -6.495294E-22   -2.868275E-21    1.845687E-18    2.288246E-16    2.067459E-14    1.460528E-12    8.050838E-11    3.389027E-09
         1.062591E-07    2.425609E-06    3.971936E-05    4.594575E-04    3.512878E-03    1.288452E-02    3.512878E-03    4.594575E-04    3.971936E-05    2.425609E-06
         1.062591E-07    3.389027E-09    8.050838E-11    1.460528E-12    2.067455E-14    2.288202E-16    1.845294E-18   -2.889561E-21   -6.503944E-22   -2.292959E-23
        -6.440434E-25
  22    -2.367088E-26   -9.620157E-25   -3.451336E-23   -8.884463E-22    8.186108E-21    3.812860E-18    4.080425E-16    3.238558E-14    1.992312E-12    9.447672E-11
         3.389027E-09    9.013932E-08    1.741895E-06    2.369680E-05    2.078737E-04    8.513926E-04    2.078737E-04    2.369680E-05    1.741895E-06    9.013932E-08
         3.389027E-09    9.447672E-11    1.992312E-12    3.238552E-14    4.080330E-16    3.811927E-18    8.129886E-21   -8.908373E-22   -3.459486E-23   -9.643679E-25
        -2.373179E-26
  23    -6.427552E-28   -2.976055E-26   -1.259388E-24   -4.490803E-23   -1.041400E-21    2.432284E-20    5.737958E-18    5.405886E-16    3.750923E-14    1.992312E-12
         8.050838E-11    2.431174E-09    5.353119E-08    8.241206E-07    8.029109E-06    3.589164E-05    8.029109E-06    8.241206E-07    5.353119E-08    2.431174E-09
         8.050838E-11    1.992312E-12    3.750915E-14    5.405744E-16    5.736395E-18    2.421652E-20   -1.046219E-21   -4.507800E-23   -1.264340E-24   -2.988493E-26
        -6.455928E-28
  24    -1.290405E-29   -6.864860E-28   -3.395530E-26   -1.476264E-24   -5.232681E-23   -1.105385E-21    3.648967E-20    6.561697E-18    5.405891E-16    3.238558E-14
         1.460528E-12    4.916003E-11    1.203730E-09    2.044219E-08    2.165003E-07    1.039787E-06    2.165003E-07    2.044219E-08    1.203730E-09    4.916003E-11
         1.460528E-12    3.238552E-14    5.405744E-16    6.559797E-18    3.634213E-20   -1.112704E-21   -5.259967E-23   -1.484416E-24   -3.415947E-26   -6.909414E-28
        -1.299326E-29
  25    -1.901920E-31   -1.180066E-29   -6.900991E-28   -3.599182E-26   -1.599968E-24   -5.606368E-23   -1.118903E-21    3.649463E-20    5.738074E-18    4.080436E-16
         2.067459E-14    7.686522E-13    2.061496E-11    3.798053E-10    4.310173E-09    2.199084E-08    4.310173E-09    3.798053E-10    2.061496E-11    7.686520E-13
         2.067455E-14    4.080330E-16    5.736395E-18    3.634213E-20   -1.127464E-21   -5.641132E-23   -1.610877E-24   -3.626879E-26   -6.960256E-28   -1.191193E-29
        -1.921275E-31
  26    -2.019963E-33   -1.495702E-31   -1.059976E-29   -6.735624E-28   -3.666593E-26   -1.638811E-24   -5.605392E-23   -1.104931E-21    2.433380E-20    3.812999E-18
         2.288254E-16    9.507520E-15    2.779259E-13    5.504235E-12    6.631425E-11    3.564984E-10    6.631425E-11    5.504235E-12    2.779258E-13    9.507502E-15
         2.288202E-16    3.811927E-18    2.421652E-20   -1.112704E-21   -5.641132E-23   -1.650998E-24   -3.698861E-26   -6.804632E-28   -1.072387E-29   -1.515349E-31
        -2.049118E-33
  27    -1.491714E-35   -1.367927E-33   -1.224980E-31   -9.811110E-30   -6.643324E-28   -3.665820E-26   -1.599397E-24   -5.230327E-23   -1.040789E-21    8.195823E-21
         1.845773E-18    9.221929E-17    3.006187E-15    6.410800E-14    8.172079E-13    4.605440E-12    8.172079E-13    6.410798E-14    3.006180E-15    9.221749E-17
         1.845294E-18    8.129886E-21   -1.046219E-21   -5.259967E-23   -1.610877E-24   -3.698861E-26   -6.716591E-28   -9.940657E-30   -1.244006E-31   -1.392454E-33
        -1.521838E-35
  28    -7.175873E-38   -8.709131E-36   -1.059728E-33   -1.128938E-31   -9.808396E-30   -6.732510E-28   -3.597146E-26   -1.475391E-24   -4.488314E-23   -8.879894E-22
        -2.863260E-21    5.776011E-19    2.509517E-17    6.033398E-16    8.235535E-15    4.867569E-14    8.235532E-15    6.033384E-16    2.509470E-17    5.774584E-19
        -2.889561E-21   -8.908373E-22   -4.507800E-23   -1.484416E-24   -3.626879E-26   -6.804632E-28   -9.940657E-30   -1.147758E-31   -1.081305E-33   -8.922550E-36
        -7.381667E-38
  29    -1.977909E-40   -3.661646E-38   -6.922996E-36   -1.059317E-33   -1.224218E-31   -1.059180E-29   -6.895525E-28   -3.392976E-26   -1.258579E-24   -3.449655E-23
        -6.493139E-22   -5.916567E-21    8.203499E-20    3.999205E-18    6.540721E-17    4.177446E-16    6.540707E-17    3.999121E-18    8.200522E-20   -5.923788E-21
        -6.503944E-22   -3.459486E-23   -1.264340E-24   -3.415947E-26   -6.960256E-28   -1.072387E-29   -1.244006E-31   -1.081305E-33   -7.107844E-36   -3.787791E-38
        -2.063756E-40
  30    -2.278433E-43   -9.767261E-41   -3.659269E-38   -8.701132E-36   -1.366504E-33   -1.494098E-31   -1.178852E-29   -6.858571E-28   -2.973840E-26   -9.615000E-25
        -2.289319E-23   -3.866007E-22   -4.148350E-21   -1.642654E-20    2.124285E-19    2.203029E-18    2.124212E-19   -1.643087E-20   -4.149709E-21   -3.868851E-22
        -2.292959E-23   -9.643679E-25   -2.988493E-26   -6.909414E-28   -1.191193E-29   -1.515349E-31   -1.392454E-33   -8.922550E-36   -3.787791E-38   -1.027145E-40
        -2.459596E-43
  31      0.00000       -2.274133E-43   -1.974512E-40   -7.164288E-38   -1.489436E-35   -2.017097E-33   -1.899502E-31   -1.289014E-29   -6.422117E-28   -2.365681E-26
        -6.429635E-25   -1.276759E-23   -1.819531E-22   -1.787824E-21   -1.071478E-20   -3.690872E-20   -1.071508E-20   -1.788001E-21   -1.820048E-22   -1.277720E-23
        -6.440434E-25   -2.373179E-26   -6.455928E-28   -1.299326E-29   -1.921275E-31   -2.049118E-33   -1.521838E-35   -7.381667E-38   -2.063756E-40   -2.459596E-43
          0.00000    

 CONCENTRATION WILL BE SAVED ON UNIT 1030 AT END OF TIME STEP  107, STRESS PERIOD    2


  MASS BUDGET FOR ENTIRE MODEL AT END OF TIME STEP  107, STRESS PERIOD   2
  ---------------------------------------------------------------------------------------------------

     CUMULATIVE MASS      M       RATES FOR THIS TIME STEP      M/T          PACKAGE NAME    
     ------------------                 ------------------------                     ----------------

           IN:                                      IN:
           ---                                      ---
     STORAGE-AQUEOUS =  7676973256.0073       STORAGE-AQUEOUS =      262459.6033     MST                              
                 WEL =  7884000000.0000                   WEL =           0.0000     SSM_WEL-1                        
                 CHD =           0.0000                   CHD =           0.0000     SSM_CHD-1                        

            TOTAL IN = 15560973256.0074              TOTAL IN =      262459.6033

          OUT:                                     OUT:
          ----                                     ----
     STORAGE-AQUEOUS =  7888719617.4229       STORAGE-AQUEOUS =           1.0280     MST                              
                 WEL =  7672253638.5847                   WEL =      262458.5754     SSM_WEL-1                        
                 CHD =       7.5562E-18                   CHD =           0.0000     SSM_CHD-1                        

           TOTAL OUT = 15560973256.0076             TOTAL OUT =      262459.6033

            IN - OUT =      -2.1553E-04              IN - OUT =      -6.8743E-08

 PERCENT DISCREPANCY =          -0.00     PERCENT DISCREPANCY =          -0.00




         TIME SUMMARY AT END OF TIME STEP  107 IN STRESS PERIOD    2
                    SECONDS     MINUTES      HOURS       DAYS        YEARS
                    -----------------------------------------------------------
   TIME STEP LENGTH 2.16991E+06  36165.      602.75      25.115     6.87602E-02
 STRESS PERIOD TIME 2.32180E+08 3.86967E+06  64494.      2687.3      7.3573    
         TOTAL TIME 3.11020E+08 5.18367E+06  86394.      3599.8      9.8556    


end timestep


start timestep kper="2" kstp="108" mode="normal"

 UBDSV1 SAVING  STORAGE-AQUEOUS ON UNIT   1029 AT TIME STEP    108, STRESS PERIOD      2
 UBDSV1 SAVING     FLOW-JA-FACE ON UNIT   1029 AT TIME STEP    108, STRESS PERIOD      2
 UBDSV06 SAVING  SOURCE-SINK MIX IN MODEL GWT_P06-MF6      PACKAGE GWT_P06-MF6     CONNECTED TO MODEL GWT_P06-MF6      PACKAGE SSM              ON UNIT   1029 AT TIME STEP    108, STRESS PERIOD      2
1
  CONCENTRATION IN LAYER   1 AT END OF TIME STEP 108 IN STRESS PERIOD    2
  ---------------------------------------------------------------------------

                1               2               3               4               5               6               7               8               9              10
               11              12              13              14              15              16              17              18              19              20
               21              22              23              24              25              26              27              28              29              30
               31
 ................................................................................................................................................................................................................................................................................................................................................................................................................................................................................................................
   1      0.00000       -2.675599E-43   -2.201109E-40   -7.798034E-38   -1.597230E-35   -2.139306E-33   -1.996463E-31   -1.344299E-29   -6.651627E-28   -2.435237E-26
        -6.582031E-25   -1.299977E-23   -1.840620E-22   -1.789742E-21   -1.051258E-20   -3.521724E-20   -1.051230E-20   -1.789592E-21   -1.840208E-22   -1.299224E-23
        -6.573392E-25   -2.429031E-26   -6.622613E-28   -1.335144E-29   -1.976525E-31   -2.109160E-33   -1.565964E-35   -7.583598E-38   -2.111289E-40   -2.485190E-43
          0.00000    
   2    -2.675599E-43   -1.097318E-40   -4.002934E-38   -9.363466E-36   -1.453444E-33   -1.574452E-31   -1.232428E-29   -7.119695E-28   -3.067026E-26   -9.854056E-25
        -2.329906E-23   -3.893242E-22   -4.072237E-21   -1.362719E-20    2.539118E-19    2.439193E-18    2.539182E-19   -1.362353E-20   -4.071151E-21   -3.891008E-22
        -2.326980E-23   -9.830163E-25   -3.054349E-26   -7.074121E-28   -1.221006E-29   -1.554213E-31   -1.428088E-33   -9.142045E-36   -3.871571E-38   -1.044594E-40
        -2.480647E-43
   3    -2.201109E-40   -4.002934E-38   -7.458777E-36   -1.128478E-33   -1.292297E-31   -1.109386E-29   -7.171895E-28   -3.505684E-26   -1.291557E-24   -3.509511E-23
        -6.494778E-22   -5.474537E-21    9.946153E-20    4.370951E-18    7.011349E-17    4.437470E-16    7.011361E-17    4.371022E-18    9.948549E-20   -5.468837E-21
        -6.486048E-22   -3.501259E-23   -1.286525E-24   -3.484866E-26   -7.111254E-28   -1.096644E-29   -1.272698E-31   -1.106175E-33   -7.267030E-36   -3.869085E-38
        -2.107719E-40
   4    -7.798034E-38   -9.363466E-36   -1.128478E-33   -1.192208E-31   -1.028246E-29   -7.010880E-28   -3.721769E-26   -1.515790E-24   -4.564279E-23   -8.797692E-22
        -1.447604E-21    6.447541E-19    2.703805E-17    6.423287E-16    8.699711E-15    5.110387E-14    8.699714E-15    6.423299E-16    2.703843E-17    6.448677E-19
        -1.426204E-21   -8.773564E-22   -4.547064E-23   -1.507503E-24   -3.693519E-26   -6.940260E-28   -1.014945E-29   -1.172821E-31   -1.105749E-33   -9.133720E-36
        -7.571484E-38
   5    -1.597230E-35   -1.453444E-33   -1.292297E-31   -1.028246E-29   -6.919842E-28   -3.795290E-26   -1.644380E-24   -5.316533E-23   -1.019292E-21    1.128732E-20
         2.014883E-18    9.882096E-17    3.189060E-15    6.750300E-14    8.550495E-13    4.791509E-12    8.550496E-13    6.750302E-14    3.189066E-15    9.882243E-17
         2.015275E-18    1.134381E-20   -1.014429E-21   -5.288893E-23   -1.633291E-24   -3.762375E-26   -6.844859E-28   -1.014666E-29   -1.271911E-31   -1.426613E-33
        -1.563592E-35
   6    -2.139306E-33   -1.574452E-31   -1.109386E-29   -7.010880E-28   -3.795290E-26   -1.685117E-24   -5.695739E-23   -1.070730E-21    2.935946E-20    4.134848E-18
         2.444965E-16    1.006170E-14    2.919003E-13    5.742548E-12    6.877160E-11    3.676828E-10    6.877160E-11    5.742548E-12    2.919003E-13    1.006172E-14
         2.445008E-16    4.135776E-18    2.946624E-20   -1.063344E-21   -5.660520E-23   -1.672726E-24   -3.761586E-26   -6.937069E-28   -1.095825E-29   -1.552557E-31
        -2.106190E-33
   7    -1.996463E-31   -1.232428E-29   -7.171895E-28   -3.721769E-26   -1.644380E-24   -5.695739E-23   -1.079279E-21    4.285447E-20    6.210362E-18    4.352278E-16
         2.184283E-14    8.056681E-13    2.145377E-11    3.926993E-10    4.430342E-09    2.248228E-08    4.430342E-09    3.926993E-10    2.145377E-11    8.056682E-13
         2.184287E-14    4.352372E-16    6.211916E-18    4.300263E-20   -1.070639E-21   -5.659530E-23   -1.632710E-24   -3.691441E-26   -7.105656E-28   -1.219758E-29
        -1.974031E-31
   8    -1.344299E-29   -7.119695E-28   -3.505684E-26   -1.515790E-24   -5.316533E-23   -1.070730E-21    4.285447E-20    7.097155E-18    5.761328E-16    3.418050E-14
         1.528652E-12    5.105780E-11    1.241319E-09    2.094440E-08    2.205337E-07    1.053574E-06    2.205337E-07    2.094440E-08    1.241319E-09    5.105780E-11
         1.528652E-12    3.418056E-14    5.761469E-16    7.099043E-18    4.300761E-20   -1.062885E-21   -5.286507E-23   -1.506616E-24   -3.482260E-26   -7.067682E-28
        -1.333714E-29
   9    -6.651627E-28   -3.067026E-26   -1.291557E-24   -4.564279E-23   -1.019292E-21    2.935946E-20    6.210362E-18    5.761328E-16    3.957449E-14    2.083661E-12
         8.350616E-11    2.502031E-09    5.469361E-08    8.365621E-07    8.103859E-06    3.604052E-05    8.103859E-06    8.365621E-07    5.469361E-08    2.502031E-09
         8.350616E-11    2.083661E-12    3.957457E-14    5.761474E-16    6.212031E-18    2.947725E-20   -1.013813E-21   -4.544543E-23   -1.285702E-24   -3.052089E-26
        -6.617052E-28
  10    -2.435237E-26   -9.854056E-25   -3.509511E-23   -8.797692E-22    1.128732E-20    4.134848E-18    4.352278E-16    3.418050E-14    2.083661E-12    9.794968E-11
         3.483931E-09    9.191690E-08    1.763097E-06    2.382929E-05    2.078745E-04    8.472462E-04    2.078745E-04    2.382929E-05    1.763097E-06    9.191690E-08
         3.483931E-09    9.794968E-11    2.083661E-12    3.418056E-14    4.352382E-16    4.135914E-18    1.135357E-20   -8.768953E-22   -3.499557E-23   -9.824925E-25
        -2.427598E-26
  11    -6.582031E-25   -2.329906E-23   -6.494778E-22   -1.447604E-21    2.014883E-18    2.444965E-16    2.184283E-14    1.528652E-12    8.350616E-11    3.483931E-09
         1.082781E-07    2.450969E-06    3.982821E-05    4.577191E-04    3.480997E-03    1.271025E-02    3.480997E-03    4.577191E-04    3.982821E-05    2.450969E-06
         1.082781E-07    3.483931E-09    8.350616E-11    1.528652E-12    2.184287E-14    2.445016E-16    2.015359E-18   -1.421164E-21   -6.483874E-22   -2.326220E-23
        -6.571066E-25
  12    -1.299977E-23   -3.893242E-22   -5.474537E-21    6.447541E-19    9.882096E-17    1.006170E-14    8.056681E-13    5.105780E-11    2.502031E-09    9.191690E-08
         2.450969E-06    4.617650E-05    6.066816E-04    5.602898E-03    3.536927E-02    0.111867        3.536927E-02    5.602898E-03    6.066816E-04    4.617650E-05
         2.450969E-06    9.191690E-08    2.502031E-09    5.105780E-11    8.056682E-13    1.006172E-14    9.882276E-17    6.448970E-19   -5.467273E-21   -3.890372E-22
        -1.299004E-23
  13    -1.840620E-22   -4.072237E-21    9.946153E-20    2.703805E-17    3.189060E-15    2.919003E-13    2.145377E-11    1.241319E-09    5.469361E-08    1.763097E-06
         3.982821E-05    6.066816E-04    6.130746E-03    4.221299E-02    0.206172        0.538498        0.206172        4.221299E-02    6.130746E-03    6.066816E-04
         3.982821E-05    1.763097E-06    5.469361E-08    1.241319E-09    2.145377E-11    2.919003E-13    3.189067E-15    2.703851E-17    9.949140E-20   -4.070868E-21
        -1.840097E-22
  14    -1.789742E-21   -1.362719E-20    4.370951E-18    6.423287E-16    6.750300E-14    5.742548E-12    3.926993E-10    2.094440E-08    8.365621E-07    2.382929E-05
         4.577191E-04    5.602898E-03    4.221299E-02    0.202796        0.700961         1.42049        0.700961        0.202796        4.221299E-02    5.602898E-03
         4.577191E-04    2.382929E-05    8.365621E-07    2.094440E-08    3.926993E-10    5.742548E-12    6.750302E-14    6.423300E-16    4.371035E-18   -1.362283E-20
        -1.789563E-21
  15    -1.051258E-20    2.539118E-19    7.011349E-17    8.699711E-15    8.550495E-13    6.877160E-11    4.430342E-09    2.205337E-07    8.103859E-06    2.078745E-04
         3.480997E-03    3.536927E-02    0.206172        0.700961         1.72582         2.31097         1.72582        0.700961        0.206172        3.536927E-02
         3.480997E-03    2.078745E-04    8.103859E-06    2.205337E-07    4.430342E-09    6.877160E-11    8.550496E-13    8.699714E-15    7.011363E-17    2.539190E-19
        -1.051227E-20
  16    -3.521724E-20    2.439193E-18    4.437470E-16    5.110387E-14    4.791509E-12    3.676828E-10    2.248228E-08    1.053574E-06    3.604052E-05    8.472462E-04
         1.271025E-02    0.111867        0.538498         1.42049         2.31097         2.93845         2.31097         1.42049        0.538498        0.111867    
         1.271025E-02    8.472462E-04    3.604052E-05    1.053574E-06    2.248228E-08    3.676828E-10    4.791509E-12    5.110387E-14    4.437470E-16    2.439193E-18
        -3.521724E-20
  17    -1.051230E-20    2.539182E-19    7.011361E-17    8.699714E-15    8.550496E-13    6.877160E-11    4.430342E-09    2.205337E-07    8.103859E-06    2.078745E-04
         3.480997E-03    3.536927E-02    0.206172        0.700961         1.72582         2.31097         1.72582        0.700961        0.206172        3.536927E-02
         3.480997E-03    2.078745E-04    8.103859E-06    2.205337E-07    4.430342E-09    6.877160E-11    8.550495E-13    8.699711E-15    7.011349E-17    2.539118E-19
        -1.051258E-20
  18    -1.789592E-21   -1.362353E-20    4.371022E-18    6.423299E-16    6.750302E-14    5.742548E-12    3.926993E-10    2.094440E-08    8.365621E-07    2.382929E-05
         4.577191E-04    5.602898E-03    4.221299E-02    0.202796        0.700961         1.42049        0.700961        0.202796        4.221299E-02    5.602898E-03
         4.577191E-04    2.382929E-05    8.365621E-07    2.094440E-08    3.926993E-10    5.742548E-12    6.750300E-14    6.423287E-16    4.370951E-18   -1.362719E-20
        -1.789742E-21
  19    -1.840208E-22   -4.071151E-21    9.948549E-20    2.703843E-17    3.189066E-15    2.919003E-13    2.145377E-11    1.241319E-09    5.469361E-08    1.763097E-06
         3.982821E-05    6.066816E-04    6.130746E-03    4.221299E-02    0.206172        0.538498        0.206172        4.221299E-02    6.130746E-03    6.066816E-04
         3.982821E-05    1.763097E-06    5.469361E-08    1.241319E-09    2.145377E-11    2.919003E-13    3.189060E-15    2.703805E-17    9.946153E-20   -4.072237E-21
        -1.840620E-22
  20    -1.299224E-23   -3.891008E-22   -5.468837E-21    6.448677E-19    9.882243E-17    1.006172E-14    8.056682E-13    5.105780E-11    2.502031E-09    9.191690E-08
         2.450969E-06    4.617650E-05    6.066816E-04    5.602898E-03    3.536927E-02    0.111867        3.536927E-02    5.602898E-03    6.066816E-04    4.617650E-05
         2.450969E-06    9.191690E-08    2.502031E-09    5.105780E-11    8.056681E-13    1.006170E-14    9.882096E-17    6.447541E-19   -5.474537E-21   -3.893242E-22
        -1.299977E-23
  21    -6.573392E-25   -2.326980E-23   -6.486048E-22   -1.426204E-21    2.015275E-18    2.445008E-16    2.184287E-14    1.528652E-12    8.350616E-11    3.483931E-09
         1.082781E-07    2.450969E-06    3.982821E-05    4.577191E-04    3.480997E-03    1.271025E-02    3.480997E-03    4.577191E-04    3.982821E-05    2.450969E-06
         1.082781E-07    3.483931E-09    8.350616E-11    1.528652E-12    2.184283E-14    2.444965E-16    2.014883E-18   -1.447604E-21   -6.494778E-22   -2.329906E-23
        -6.582031E-25
  22    -2.429031E-26   -9.830163E-25   -3.501259E-23   -8.773564E-22    1.134381E-20    4.135776E-18    4.352372E-16    3.418056E-14    2.083661E-12    9.794968E-11
         3.483931E-09    9.191690E-08    1.763097E-06    2.382929E-05    2.078745E-04    8.472462E-04    2.078745E-04    2.382929E-05    1.763097E-06    9.191690E-08
         3.483931E-09    9.794968E-11    2.083661E-12    3.418050E-14    4.352278E-16    4.134848E-18    1.128732E-20   -8.797692E-22   -3.509511E-23   -9.854056E-25
        -2.435237E-26
  23    -6.622613E-28   -3.054349E-26   -1.286525E-24   -4.547064E-23   -1.014429E-21    2.946624E-20    6.211916E-18    5.761469E-16    3.957457E-14    2.083661E-12
         8.350616E-11    2.502031E-09    5.469361E-08    8.365621E-07    8.103859E-06    3.604052E-05    8.103859E-06    8.365621E-07    5.469361E-08    2.502031E-09
         8.350616E-11    2.083661E-12    3.957449E-14    5.761328E-16    6.210362E-18    2.935946E-20   -1.019292E-21   -4.564279E-23   -1.291557E-24   -3.067026E-26
        -6.651627E-28
  24    -1.335144E-29   -7.074121E-28   -3.484866E-26   -1.507503E-24   -5.288893E-23   -1.063344E-21    4.300263E-20    7.099043E-18    5.761474E-16    3.418056E-14
         1.528652E-12    5.105780E-11    1.241319E-09    2.094440E-08    2.205337E-07    1.053574E-06    2.205337E-07    2.094440E-08    1.241319E-09    5.105780E-11
         1.528652E-12    3.418050E-14    5.761328E-16    7.097155E-18    4.285447E-20   -1.070730E-21   -5.316533E-23   -1.515790E-24   -3.505684E-26   -7.119695E-28
        -1.344299E-29
  25    -1.976525E-31   -1.221006E-29   -7.111254E-28   -3.693519E-26   -1.633291E-24   -5.660520E-23   -1.070639E-21    4.300761E-20    6.212031E-18    4.352382E-16
         2.184287E-14    8.056682E-13    2.145377E-11    3.926993E-10    4.430342E-09    2.248228E-08    4.430342E-09    3.926993E-10    2.145377E-11    8.056681E-13
         2.184283E-14    4.352278E-16    6.210362E-18    4.285447E-20   -1.079279E-21   -5.695739E-23   -1.644380E-24   -3.721769E-26   -7.171895E-28   -1.232428E-29
        -1.996463E-31
  26    -2.109160E-33   -1.554213E-31   -1.096644E-29   -6.940260E-28   -3.762375E-26   -1.672726E-24   -5.659530E-23   -1.062885E-21    2.947725E-20    4.135914E-18
         2.445016E-16    1.006172E-14    2.919003E-13    5.742548E-12    6.877160E-11    3.676828E-10    6.877160E-11    5.742548E-12    2.919003E-13    1.006170E-14
         2.444965E-16    4.134848E-18    2.935946E-20   -1.070730E-21   -5.695739E-23   -1.685117E-24   -3.795290E-26   -7.010880E-28   -1.109386E-29   -1.574452E-31
        -2.139306E-33
  27    -1.565964E-35   -1.428088E-33   -1.272698E-31   -1.014945E-29   -6.844859E-28   -3.761586E-26   -1.632710E-24   -5.286507E-23   -1.013813E-21    1.135357E-20
         2.015359E-18    9.882276E-17    3.189067E-15    6.750302E-14    8.550496E-13    4.791509E-12    8.550495E-13    6.750300E-14    3.189060E-15    9.882096E-17
         2.014883E-18    1.128732E-20   -1.019292E-21   -5.316533E-23   -1.644380E-24   -3.795290E-26   -6.919842E-28   -1.028246E-29   -1.292297E-31   -1.453444E-33
        -1.597230E-35
  28    -7.583598E-38   -9.142045E-36   -1.106175E-33   -1.172821E-31   -1.014666E-29   -6.937069E-28   -3.691441E-26   -1.506616E-24   -4.544543E-23   -8.768953E-22
        -1.421164E-21    6.448970E-19    2.703851E-17    6.423300E-16    8.699714E-15    5.110387E-14    8.699711E-15    6.423287E-16    2.703805E-17    6.447541E-19
        -1.447604E-21   -8.797692E-22   -4.564279E-23   -1.515790E-24   -3.721769E-26   -7.010880E-28   -1.028246E-29   -1.192208E-31   -1.128478E-33   -9.363466E-36
        -7.798034E-38
  29    -2.111289E-40   -3.871571E-38   -7.267030E-36   -1.105749E-33   -1.271911E-31   -1.095825E-29   -7.105656E-28   -3.482260E-26   -1.285702E-24   -3.499557E-23
        -6.483874E-22   -5.467273E-21    9.949140E-20    4.371035E-18    7.011363E-17    4.437470E-16    7.011349E-17    4.370951E-18    9.946153E-20   -5.474537E-21
        -6.494778E-22   -3.509511E-23   -1.291557E-24   -3.505684E-26   -7.171895E-28   -1.109386E-29   -1.292297E-31   -1.128478E-33   -7.458777E-36   -4.002934E-38
        -2.201109E-40
  30    -2.485190E-43   -1.044594E-40   -3.869085E-38   -9.133720E-36   -1.426613E-33   -1.552557E-31   -1.219758E-29   -7.067682E-28   -3.052089E-26   -9.824925E-25
        -2.326220E-23   -3.890372E-22   -4.070868E-21   -1.362283E-20    2.539190E-19    2.439193E-18    2.539118E-19   -1.362719E-20   -4.072237E-21   -3.893242E-22
        -2.329906E-23   -9.854056E-25   -3.067026E-26   -7.119695E-28   -1.232428E-29   -1.574452E-31   -1.453444E-33   -9.363466E-36   -4.002934E-38   -1.097318E-40
        -2.675599E-43
  31      0.00000       -2.480647E-43   -2.107719E-40   -7.571484E-38   -1.563592E-35   -2.106190E-33   -1.974031E-31   -1.333714E-29   -6.617052E-28   -2.427598E-26
        -6.571066E-25   -1.299004E-23   -1.840097E-22   -1.789563E-21   -1.051227E-20   -3.521724E-20   -1.051258E-20   -1.789742E-21   -1.840620E-22   -1.299977E-23
        -6.582031E-25   -2.435237E-26   -6.651627E-28   -1.344299E-29   -1.996463E-31   -2.139306E-33   -1.597230E-35   -7.798034E-38   -2.201109E-40   -2.675599E-43
          0.00000    

 CONCENTRATION WILL BE SAVED ON UNIT 1030 AT END OF TIME STEP  108, STRESS PERIOD    2


  MASS BUDGET FOR ENTIRE MODEL AT END OF TIME STEP  108, STRESS PERIOD   2
  ---------------------------------------------------------------------------------------------------

     CUMULATIVE MASS      M       RATES FOR THIS TIME STEP      M/T          PACKAGE NAME    
     ------------------                 ------------------------                     ----------------

           IN:                                      IN:
           ---                                      ---
     STORAGE-AQUEOUS =  7683349447.5809       STORAGE-AQUEOUS =      253883.0617     MST                              
                 WEL =  7884000000.0000                   WEL =           0.0000     SSM_WEL-1                        
                 CHD =           0.0000                   CHD =           0.0000     SSM_CHD-1                        

            TOTAL IN = 15567349447.5809              TOTAL IN =      253883.0617

          OUT:                                     OUT:
          ----                                     ----
     STORAGE-AQUEOUS =  7888719640.2930       STORAGE-AQUEOUS =           0.9106     MST                              
                 WEL =  7678629807.2881                   WEL =      253882.1511     SSM_WEL-1                        
                 CHD =       7.5562E-18                   CHD =           0.0000     SSM_CHD-1                        

           TOTAL OUT = 15567349447.5811             TOTAL OUT =      253883.0617

            IN - OUT =      -2.1553E-04              IN - OUT =      -6.7113E-08

 PERCENT DISCREPANCY =          -0.00     PERCENT DISCREPANCY =          -0.00




         TIME SUMMARY AT END OF TIME STEP  108 IN STRESS PERIOD    2
                    SECONDS     MINUTES      HOURS       DAYS        YEARS
                    -----------------------------------------------------------
   TIME STEP LENGTH 2.16991E+06  36165.      602.75      25.115     6.87602E-02
 STRESS PERIOD TIME 2.34350E+08 3.90583E+06  65097.      2712.4      7.4261    
         TOTAL TIME 3.13190E+08 5.21983E+06  86997.      3624.9      9.9244    


end timestep


start timestep kper="2" kstp="109" mode="normal"

 UBDSV1 SAVING  STORAGE-AQUEOUS ON UNIT   1029 AT TIME STEP    109, STRESS PERIOD      2
 UBDSV1 SAVING     FLOW-JA-FACE ON UNIT   1029 AT TIME STEP    109, STRESS PERIOD      2
 UBDSV06 SAVING  SOURCE-SINK MIX IN MODEL GWT_P06-MF6      PACKAGE GWT_P06-MF6     CONNECTED TO MODEL GWT_P06-MF6      PACKAGE SSM              ON UNIT   1029 AT TIME STEP    109, STRESS PERIOD      2
1
  CONCENTRATION IN LAYER   1 AT END OF TIME STEP 109 IN STRESS PERIOD    2
  ---------------------------------------------------------------------------

                1               2               3               4               5               6               7               8               9              10
               11              12              13              14              15              16              17              18              19              20
               21              22              23              24              25              26              27              28              29              30
               31
 ................................................................................................................................................................................................................................................................................................................................................................................................................................................................................................................
   1      0.00000       -2.905912E-43   -2.346144E-40   -8.234791E-38   -1.675895E-35   -2.232969E-33   -2.074207E-31   -1.390607E-29   -6.852297E-28   -2.498586E-26
        -6.725719E-25   -1.322312E-23   -1.860565E-22   -1.789597E-21   -1.028443E-20   -3.338990E-20   -1.028416E-20   -1.789447E-21   -1.860149E-22   -1.321550E-23
        -6.716948E-25   -2.492264E-26   -6.822634E-28   -1.381213E-29   -2.053672E-31   -2.201803E-33   -1.643448E-35   -8.011390E-38   -2.252186E-40   -2.705833E-43
          0.00000    
   2    -2.905912E-43   -1.171432E-40   -4.228587E-38   -9.823432E-36   -1.516776E-33   -1.635564E-31   -1.274889E-29   -7.335323E-28   -3.147164E-26   -1.006711E-24
        -2.366623E-23   -3.914366E-22   -3.983147E-21   -1.058959E-20    2.981844E-19    2.688608E-18    2.981909E-19   -1.058591E-20   -3.982053E-21   -3.912110E-22
        -2.363662E-23   -1.004284E-24   -3.134243E-26   -7.288709E-28   -1.263165E-29   -1.614715E-31   -1.490566E-33   -9.593741E-36   -4.091812E-38   -1.116308E-40
        -2.701035E-43
   3    -2.346144E-40   -4.228587E-38   -7.824838E-36   -1.177455E-33   -1.342224E-31   -1.147484E-29   -7.388901E-28   -3.597216E-26   -1.319056E-24   -3.558489E-23
        -6.475131E-22   -4.979017E-21    1.181964E-19    4.765286E-18    7.506965E-17    4.709631E-16    7.506977E-17    4.765357E-18    1.182204E-19   -4.973282E-21
        -6.466322E-22   -3.550133E-23   -1.313943E-24   -3.575990E-26   -7.326859E-28   -1.134403E-29   -1.322036E-31   -1.154405E-33   -7.625963E-36   -4.089215E-38
        -2.248436E-40
   4    -8.234791E-38   -9.823432E-36   -1.177455E-33   -1.238161E-31   -1.063438E-29   -7.222337E-28   -3.818513E-26   -1.547412E-24   -4.618387E-23   -8.663214E-22
         1.185699E-22    7.166740E-19    2.909362E-17    6.832759E-16    9.184061E-15    5.362260E-14    9.184063E-15    6.832771E-16    2.909399E-17    7.167878E-19
         1.400834E-22   -8.638867E-22   -4.600952E-23   -1.538990E-24   -3.789704E-26   -7.150074E-28   -1.049783E-29   -1.218191E-31   -1.153963E-33   -9.585080E-36
        -7.998726E-38
   5    -1.675895E-35   -1.516776E-33   -1.342224E-31   -1.063438E-29   -7.128217E-28   -3.893577E-26   -1.678086E-24   -5.369308E-23   -9.882640E-22    1.469499E-20
         2.195531E-18    1.057907E-16    3.380647E-15    7.103531E-14    8.941722E-13    4.982738E-12    8.941723E-13    7.103533E-14    3.380653E-15    1.057922E-16
         2.195921E-18    1.475175E-20   -9.833561E-22   -5.341310E-23   -1.666813E-24   -3.860004E-26   -7.051485E-28   -1.049496E-29   -1.321223E-31   -1.489037E-33
        -1.640980E-35
   6    -2.232969E-33   -1.635564E-31   -1.147484E-29   -7.222337E-28   -3.893577E-26   -1.719417E-24   -5.745635E-23   -1.023156E-21    3.489870E-20    4.478211E-18
         2.610144E-16    1.064105E-14    3.064013E-13    5.988136E-12    7.128762E-11    3.790641E-10    7.128762E-11    5.988137E-12    3.064014E-13    1.064107E-14
         2.610187E-16    4.479134E-18    3.500594E-20   -1.015702E-21   -5.709956E-23   -1.706821E-24   -3.859199E-26   -7.146805E-28   -1.133561E-29   -1.613007E-31
        -2.198726E-33
   7    -2.074207E-31   -1.274889E-29   -7.388901E-28   -3.818513E-26   -1.678086E-24   -5.745635E-23   -1.024895E-21    4.986411E-20    6.713797E-18    4.638488E-16
         2.306211E-14    8.439917E-13    2.231560E-11    4.058520E-10    4.552086E-09    2.297682E-08    4.552086E-09    4.058520E-10    2.231560E-11    8.439918E-13
         2.306214E-14    4.638581E-16    6.715342E-18    5.001287E-20   -1.016176E-21   -5.708953E-23   -1.666222E-24   -3.787582E-26   -7.321125E-28   -1.261882E-29
        -2.051099E-31
   8    -1.390607E-29   -7.335323E-28   -3.597216E-26   -1.547412E-24   -5.369308E-23   -1.023156E-21    4.986411E-20    7.667730E-18    6.135332E-16    3.605184E-14
         1.599062E-12    5.300275E-11    1.279528E-09    2.145086E-08    2.245692E-07    1.067248E-06    2.245692E-07    2.145086E-08    1.279528E-09    5.300275E-11
         1.599062E-12    3.605190E-14    6.135472E-16    7.669607E-18    5.001787E-20   -1.015239E-21   -5.338892E-23   -1.538088E-24   -3.573330E-26   -7.282117E-28
        -1.379744E-29
   9    -6.852297E-28   -3.147164E-26   -1.319056E-24   -4.618387E-23   -9.882640E-22    3.489870E-20    6.713797E-18    6.135332E-16    4.172690E-14    2.177989E-12
         8.657317E-11    2.573850E-09    5.586071E-08    8.489276E-07    8.177193E-06    3.618243E-05    8.177193E-06    8.489276E-07    5.586071E-08    2.573850E-09
         8.657317E-11    2.177990E-12    4.172697E-14    6.135478E-16    6.715457E-18    3.501699E-20   -9.827344E-22   -4.598398E-23   -1.313107E-24   -3.131940E-26
        -6.816945E-28
  10    -2.498586E-26   -1.006711E-24   -3.558489E-23   -8.663214E-22    1.469499E-20    4.478211E-18    4.638488E-16    3.605184E-14    2.177989E-12    1.015007E-10
         3.579965E-09    9.369542E-08    1.784018E-06    2.395674E-05    2.078363E-04    8.430021E-04    2.078363E-04    2.395674E-05    1.784018E-06    9.369542E-08
         3.579965E-09    1.015007E-10    2.177990E-12    3.605190E-14    4.638592E-16    4.479271E-18    1.476155E-20   -8.634215E-22   -3.548410E-23   -1.003752E-24
        -2.490804E-26
  11    -6.725719E-25   -2.366623E-23   -6.475131E-22    1.185699E-22    2.195531E-18    2.610144E-16    2.306211E-14    1.599062E-12    8.657317E-11    3.579965E-09
         1.102954E-07    2.475858E-06    3.992812E-05    4.559102E-04    3.449010E-03    1.253749E-02    3.449010E-03    4.559102E-04    3.992812E-05    2.475858E-06
         1.102954E-07    3.579965E-09    8.657317E-11    1.599062E-12    2.306215E-14    2.610195E-16    2.196005E-18    1.451471E-22   -6.464129E-22   -2.362892E-23
        -6.714587E-25
  12    -1.322312E-23   -3.914366E-22   -4.979017E-21    7.166740E-19    1.057907E-16    1.064105E-14    8.439917E-13    5.300275E-11    2.573850E-09    9.369542E-08
         2.475858E-06    4.624170E-05    6.027931E-04    5.531467E-03    3.475015E-02    0.109490        3.475015E-02    5.531467E-03    6.027931E-04    4.624170E-05
         2.475858E-06    9.369542E-08    2.573850E-09    5.300275E-11    8.439918E-13    1.064107E-14    1.057925E-16    7.168171E-19   -4.971709E-21   -3.911469E-22
        -1.321327E-23
  13    -1.860565E-22   -3.983147E-21    1.181964E-19    2.909362E-17    3.380647E-15    3.064013E-13    2.231560E-11    1.279528E-09    5.586071E-08    1.784018E-06
         3.992812E-05    6.027931E-04    6.043129E-03    4.135347E-02    0.201154        0.523920        0.201154        4.135347E-02    6.043129E-03    6.027931E-04
         3.992812E-05    1.784018E-06    5.586071E-08    1.279528E-09    2.231560E-11    3.064014E-13    3.380654E-15    2.909408E-17    1.182263E-19   -3.981768E-21
        -1.860037E-22
  14    -1.789597E-21   -1.058959E-20    4.765286E-18    6.832759E-16    7.103531E-14    5.988136E-12    4.058520E-10    2.145086E-08    8.489276E-07    2.395674E-05
         4.559102E-04    5.531467E-03    4.135347E-02    0.197539        0.680643         1.37714        0.680643        0.197539        4.135347E-02    5.531467E-03
         4.559102E-04    2.395674E-05    8.489276E-07    2.145086E-08    4.058520E-10    5.988137E-12    7.103533E-14    6.832773E-16    4.765370E-18   -1.058521E-20
        -1.789417E-21
  15    -1.028443E-20    2.981844E-19    7.506965E-17    9.184061E-15    8.941722E-13    7.128762E-11    4.552086E-09    2.245692E-07    8.177193E-06    2.078363E-04
         3.449010E-03    3.475015E-02    0.201154        0.680643         1.67142         2.23703         1.67142        0.680643        0.201154        3.475015E-02
         3.449010E-03    2.078363E-04    8.177193E-06    2.245692E-07    4.552086E-09    7.128762E-11    8.941723E-13    9.184063E-15    7.506979E-17    2.981917E-19
        -1.028412E-20
  16    -3.338990E-20    2.688608E-18    4.709631E-16    5.362260E-14    4.982738E-12    3.790641E-10    2.297682E-08    1.067248E-06    3.618243E-05    8.430021E-04
         1.253749E-02    0.109490        0.523920         1.37714         2.23703         2.84267         2.23703         1.37714        0.523920        0.109490    
         1.253749E-02    8.430021E-04    3.618243E-05    1.067248E-06    2.297682E-08    3.790641E-10    4.982738E-12    5.362260E-14    4.709631E-16    2.688608E-18
        -3.338990E-20
  17    -1.028416E-20    2.981909E-19    7.506977E-17    9.184063E-15    8.941723E-13    7.128762E-11    4.552086E-09    2.245692E-07    8.177193E-06    2.078363E-04
         3.449010E-03    3.475015E-02    0.201154        0.680643         1.67142         2.23703         1.67142        0.680643        0.201154        3.475015E-02
         3.449010E-03    2.078363E-04    8.177193E-06    2.245692E-07    4.552086E-09    7.128762E-11    8.941722E-13    9.184061E-15    7.506965E-17    2.981844E-19
        -1.028443E-20
  18    -1.789447E-21   -1.058591E-20    4.765357E-18    6.832771E-16    7.103533E-14    5.988137E-12    4.058520E-10    2.145086E-08    8.489276E-07    2.395674E-05
         4.559102E-04    5.531467E-03    4.135347E-02    0.197539        0.680643         1.37714        0.680643        0.197539        4.135347E-02    5.531467E-03
         4.559102E-04    2.395674E-05    8.489276E-07    2.145086E-08    4.058520E-10    5.988136E-12    7.103531E-14    6.832759E-16    4.765286E-18   -1.058959E-20
        -1.789597E-21
  19    -1.860149E-22   -3.982053E-21    1.182204E-19    2.909399E-17    3.380653E-15    3.064014E-13    2.231560E-11    1.279528E-09    5.586071E-08    1.784018E-06
         3.992812E-05    6.027931E-04    6.043129E-03    4.135347E-02    0.201154        0.523920        0.201154        4.135347E-02    6.043129E-03    6.027931E-04
         3.992812E-05    1.784018E-06    5.586071E-08    1.279528E-09    2.231560E-11    3.064013E-13    3.380647E-15    2.909362E-17    1.181964E-19   -3.983147E-21
        -1.860565E-22
  20    -1.321550E-23   -3.912110E-22   -4.973282E-21    7.167878E-19    1.057922E-16    1.064107E-14    8.439918E-13    5.300275E-11    2.573850E-09    9.369542E-08
         2.475858E-06    4.624170E-05    6.027931E-04    5.531467E-03    3.475015E-02    0.109490        3.475015E-02    5.531467E-03    6.027931E-04    4.624170E-05
         2.475858E-06    9.369542E-08    2.573850E-09    5.300275E-11    8.439917E-13    1.064105E-14    1.057907E-16    7.166740E-19   -4.979016E-21   -3.914366E-22
        -1.322312E-23
  21    -6.716948E-25   -2.363662E-23   -6.466322E-22    1.400834E-22    2.195921E-18    2.610187E-16    2.306214E-14    1.599062E-12    8.657317E-11    3.579965E-09
         1.102954E-07    2.475858E-06    3.992812E-05    4.559102E-04    3.449010E-03    1.253749E-02    3.449010E-03    4.559102E-04    3.992812E-05    2.475858E-06
         1.102954E-07    3.579965E-09    8.657317E-11    1.599062E-12    2.306211E-14    2.610144E-16    2.195531E-18    1.185700E-22   -6.475131E-22   -2.366623E-23
        -6.725719E-25
  22    -2.492264E-26   -1.004284E-24   -3.550133E-23   -8.638867E-22    1.475175E-20    4.479134E-18    4.638581E-16    3.605190E-14    2.177990E-12    1.015007E-10
         3.579965E-09    9.369542E-08    1.784018E-06    2.395674E-05    2.078363E-04    8.430021E-04    2.078363E-04    2.395674E-05    1.784018E-06    9.369542E-08
         3.579965E-09    1.015007E-10    2.177989E-12    3.605184E-14    4.638488E-16    4.478211E-18    1.469499E-20   -8.663214E-22   -3.558489E-23   -1.006711E-24
        -2.498586E-26
  23    -6.822634E-28   -3.134243E-26   -1.313943E-24   -4.600952E-23   -9.833561E-22    3.500594E-20    6.715342E-18    6.135472E-16    4.172697E-14    2.177990E-12
         8.657317E-11    2.573850E-09    5.586071E-08    8.489276E-07    8.177193E-06    3.618243E-05    8.177193E-06    8.489276E-07    5.586071E-08    2.573850E-09
         8.657317E-11    2.177989E-12    4.172690E-14    6.135332E-16    6.713797E-18    3.489870E-20   -9.882640E-22   -4.618387E-23   -1.319056E-24   -3.147164E-26
        -6.852297E-28
  24    -1.381213E-29   -7.288709E-28   -3.575990E-26   -1.538990E-24   -5.341310E-23   -1.015702E-21    5.001287E-20    7.669607E-18    6.135478E-16    3.605190E-14
         1.599062E-12    5.300275E-11    1.279528E-09    2.145086E-08    2.245692E-07    1.067248E-06    2.245692E-07    2.145086E-08    1.279528E-09    5.300275E-11
         1.599062E-12    3.605184E-14    6.135332E-16    7.667730E-18    4.986411E-20   -1.023156E-21   -5.369308E-23   -1.547412E-24   -3.597215E-26   -7.335323E-28
        -1.390607E-29
  25    -2.053672E-31   -1.263165E-29   -7.326859E-28   -3.789704E-26   -1.666813E-24   -5.709956E-23   -1.016176E-21    5.001787E-20    6.715457E-18    4.638592E-16
         2.306215E-14    8.439918E-13    2.231560E-11    4.058520E-10    4.552086E-09    2.297682E-08    4.552086E-09    4.058520E-10    2.231560E-11    8.439917E-13
         2.306211E-14    4.638488E-16    6.713797E-18    4.986411E-20   -1.024895E-21   -5.745635E-23   -1.678086E-24   -3.818513E-26   -7.388901E-28   -1.274889E-29
        -2.074207E-31
  26    -2.201803E-33   -1.614715E-31   -1.134403E-29   -7.150074E-28   -3.860004E-26   -1.706821E-24   -5.708953E-23   -1.015239E-21    3.501699E-20    4.479271E-18
         2.610195E-16    1.064107E-14    3.064014E-13    5.988137E-12    7.128762E-11    3.790641E-10    7.128762E-11    5.988136E-12    3.064013E-13    1.064105E-14
         2.610144E-16    4.478211E-18    3.489870E-20   -1.023156E-21   -5.745635E-23   -1.719417E-24   -3.893577E-26   -7.222337E-28   -1.147484E-29   -1.635564E-31
        -2.232969E-33
  27    -1.643448E-35   -1.490566E-33   -1.322036E-31   -1.049783E-29   -7.051485E-28   -3.859199E-26   -1.666222E-24   -5.338892E-23   -9.827344E-22    1.476155E-20
         2.196005E-18    1.057925E-16    3.380654E-15    7.103533E-14    8.941723E-13    4.982738E-12    8.941722E-13    7.103531E-14    3.380647E-15    1.057907E-16
         2.195531E-18    1.469499E-20   -9.882640E-22   -5.369308E-23   -1.678086E-24   -3.893577E-26   -7.128217E-28   -1.063438E-29   -1.342224E-31   -1.516776E-33
        -1.675895E-35
  28    -8.011390E-38   -9.593741E-36   -1.154405E-33   -1.218191E-31   -1.049496E-29   -7.146805E-28   -3.787582E-26   -1.538088E-24   -4.598398E-23   -8.634215E-22
         1.451471E-22    7.168171E-19    2.909408E-17    6.832773E-16    9.184063E-15    5.362260E-14    9.184061E-15    6.832759E-16    2.909362E-17    7.166740E-19
         1.185700E-22   -8.663214E-22   -4.618387E-23   -1.547412E-24   -3.818513E-26   -7.222337E-28   -1.063438E-29   -1.238161E-31   -1.177455E-33   -9.823432E-36
        -8.234790E-38
  29    -2.252186E-40   -4.091812E-38   -7.625963E-36   -1.153963E-33   -1.321223E-31   -1.133561E-29   -7.321125E-28   -3.573330E-26   -1.313107E-24   -3.548410E-23
        -6.464129E-22   -4.971709E-21    1.182263E-19    4.765370E-18    7.506979E-17    4.709631E-16    7.506965E-17    4.765286E-18    1.181964E-19   -4.979016E-21
        -6.475131E-22   -3.558489E-23   -1.319056E-24   -3.597215E-26   -7.388901E-28   -1.147484E-29   -1.342224E-31   -1.177455E-33   -7.824838E-36   -4.228587E-38
        -2.346143E-40
  30    -2.705833E-43   -1.116308E-40   -4.089215E-38   -9.585080E-36   -1.489037E-33   -1.613007E-31   -1.261882E-29   -7.282117E-28   -3.131940E-26   -1.003752E-24
        -2.362892E-23   -3.911469E-22   -3.981768E-21   -1.058521E-20    2.981917E-19    2.688608E-18    2.981844E-19   -1.058959E-20   -3.983147E-21   -3.914366E-22
        -2.366623E-23   -1.006711E-24   -3.147164E-26   -7.335323E-28   -1.274889E-29   -1.635564E-31   -1.516776E-33   -9.823432E-36   -4.228587E-38   -1.171432E-40
        -2.905912E-43
  31      0.00000       -2.701035E-43   -2.248436E-40   -7.998726E-38   -1.640980E-35   -2.198726E-33   -2.051099E-31   -1.379744E-29   -6.816945E-28   -2.490804E-26
        -6.714587E-25   -1.321327E-23   -1.860037E-22   -1.789417E-21   -1.028412E-20   -3.338990E-20   -1.028443E-20   -1.789597E-21   -1.860565E-22   -1.322312E-23
        -6.725719E-25   -2.498586E-26   -6.852297E-28   -1.390607E-29   -2.074207E-31   -2.232969E-33   -1.675895E-35   -8.234790E-38   -2.346143E-40   -2.905912E-43
          0.00000    

 CONCENTRATION WILL BE SAVED ON UNIT 1030 AT END OF TIME STEP  109, STRESS PERIOD    2


  MASS BUDGET FOR ENTIRE MODEL AT END OF TIME STEP  109, STRESS PERIOD   2
  ---------------------------------------------------------------------------------------------------

     CUMULATIVE MASS      M       RATES FOR THIS TIME STEP      M/T          PACKAGE NAME    
     ------------------                 ------------------------                     ----------------

           IN:                                      IN:
           ---                                      ---
     STORAGE-AQUEOUS =  7689517795.0000       STORAGE-AQUEOUS =      245607.2580     MST                              
                 WEL =  7884000000.0000                   WEL =           0.0000     SSM_WEL-1                        
                 CHD =           0.0000                   CHD =           0.0000     SSM_CHD-1                        

            TOTAL IN = 15573517795.0000              TOTAL IN =      245607.2580

          OUT:                                     OUT:
          ----                                     ----
     STORAGE-AQUEOUS =  7888719661.9915       STORAGE-AQUEOUS =           0.8640     MST                              
                 WEL =  7684798133.0086                   WEL =      245606.3940     SSM_WEL-1                        
                 CHD =       7.5562E-18                   CHD =           0.0000     SSM_CHD-1                        

           TOTAL OUT = 15573517795.0002             TOTAL OUT =      245607.2580

            IN - OUT =      -2.1553E-04              IN - OUT =      -6.3766E-08

 PERCENT DISCREPANCY =          -0.00     PERCENT DISCREPANCY =          -0.00




         TIME SUMMARY AT END OF TIME STEP  109 IN STRESS PERIOD    2
                    SECONDS     MINUTES      HOURS       DAYS        YEARS
                    -----------------------------------------------------------
   TIME STEP LENGTH 2.16991E+06  36165.      602.75      25.115     6.87602E-02
 STRESS PERIOD TIME 2.36520E+08 3.94200E+06  65700.      2737.5      7.4949    
         TOTAL TIME 3.15360E+08 5.25600E+06  87600.      3650.0      9.9932    


end timestep

