 LISTING FILE: Chapman_model_mt.list
                         UNIT  16

 OPENING mt3d_link.ftl
 FILE TYPE:FTL   UNIT  10

 OPENING Chapman_model_mt.btn
 FILE TYPE:BTN   UNIT  31

 OPENING Chapman_model_mt.adv
 FILE TYPE:ADV   UNIT  32

 OPENING Chapman_model_mt.dsp
 FILE TYPE:DSP   UNIT  33

 OPENING Chapman_model_mt.ssm
 FILE TYPE:SSM   UNIT  34

 OPENING Chapman_model_mt.gcg
 FILE TYPE:GCG   UNIT  35

                              +++++++++++++++++++++++++++++++++++++++++++++++++++++++++++++++++++++++
                              +                                                                     +
                              +                              MT3D-USGS                              +
                              +             A Modular 3D Multi-Species Transport Model              +
                              +    For Simulation of Advection, Dispersion and Chemical Reactions   +
                              +                of Contaminants in Groundwater Systems               +
                              +                                                                     +
                              +++++++++++++++++++++++++++++++++++++++++++++++++++++++++++++++++++++++

  ----- 
 | M T | ## BTN for MT3DMS, generated by Flopy.                                          
 | 3 D | ##                                                                              
  ----- 
 THE TRANSPORT MODEL CONSISTS OF    40 LAYER(S)    1 ROW(S)  120 COLUMN(S)
 NUMBER OF STRESS PERIOD(S) FOR TRANSPORT SIMULATION =    3
 NUMBER OF ALL COMPONENTS INCLUDED IN SIMULATION =    1
 NUMBER OF MOBILE COMPONENTS INCLUDED IN SIMULATION =    1
 UNIT FOR TIME IS D   ;  UNIT FOR LENGTH IS M   ;  UNIT FOR MASS IS KG  
 OPTIONAL PACKAGES INCLUDED IN CURRENT SIMULATION:
  o ADV   ON UNIT 32
  o DSP   ON UNIT 33
  o SSM   ON UNIT 34
  o GCG   ON UNIT 35


 BTN1 -- BASIC TRANSPORT PACKAGE, VERSION 1, MAY 2016, INPUT READ FROM UNIT 31

 BTN PACKAGE KEYWORD INPUT: 
 DRYCELL OPTION NOT SET
  DRY CELL BUDGET OMITTED FROM GLOBAL MASS BALANCE SUMMARY

 LAYER NUMBER  AQUIFER TYPE
 ------------  ------------
       1            0
       2            0
       3            0
       4            0
       5            0
       6            0
       7            0
       8            0
       9            0
      10            0
      11            0
      12            0
      13            0
      14            0
      15            0
      16            0
      17            0
      18            0
      19            0
      20            0
      21            0
      22            0
      23            0
      24            0
      25            0
      26            0
      27            0
      28            0
      29            0
      30            0
      31            0
      32            0
      33            0
      34            0
      35            0
      36            0
      37            0
      38            0
      39            0
      40            0
                                       WIDTH ALONG ROWS (DELR)  =  0.1000000E-01
                                       WIDTH ALONG COLS (DELC)  =  0.3000000E-01
                                       TOP ELEV. OF 1ST LAYER   =   0.000000    

                     CELL THICKNESS (DZ)      FOR LAYER  1 READ ON UNIT  31 USING FORMAT: "         (120E15.6) "
                     ------------------------------------------------------------------------------------------

                     CELL THICKNESS (DZ)      FOR LAYER  2 READ ON UNIT  31 USING FORMAT: "         (120E15.6) "
                     ------------------------------------------------------------------------------------------

                     CELL THICKNESS (DZ)      FOR LAYER  3 READ ON UNIT  31 USING FORMAT: "         (120E15.6) "
                     ------------------------------------------------------------------------------------------

                     CELL THICKNESS (DZ)      FOR LAYER  4 READ ON UNIT  31 USING FORMAT: "         (120E15.6) "
                     ------------------------------------------------------------------------------------------

                     CELL THICKNESS (DZ)      FOR LAYER  5 READ ON UNIT  31 USING FORMAT: "         (120E15.6) "
                     ------------------------------------------------------------------------------------------

                     CELL THICKNESS (DZ)      FOR LAYER  6 READ ON UNIT  31 USING FORMAT: "         (120E15.6) "
                     ------------------------------------------------------------------------------------------

                     CELL THICKNESS (DZ)      FOR LAYER  7 READ ON UNIT  31 USING FORMAT: "         (120E15.6) "
                     ------------------------------------------------------------------------------------------

                     CELL THICKNESS (DZ)      FOR LAYER  8 READ ON UNIT  31 USING FORMAT: "         (120E15.6) "
                     ------------------------------------------------------------------------------------------

                     CELL THICKNESS (DZ)      FOR LAYER  9 READ ON UNIT  31 USING FORMAT: "         (120E15.6) "
                     ------------------------------------------------------------------------------------------

                     CELL THICKNESS (DZ)      FOR LAYER 10 READ ON UNIT  31 USING FORMAT: "         (120E15.6) "
                     ------------------------------------------------------------------------------------------

                     CELL THICKNESS (DZ)      FOR LAYER 11 READ ON UNIT  31 USING FORMAT: "         (120E15.6) "
                     ------------------------------------------------------------------------------------------

                     CELL THICKNESS (DZ)      FOR LAYER 12 READ ON UNIT  31 USING FORMAT: "         (120E15.6) "
                     ------------------------------------------------------------------------------------------

                     CELL THICKNESS (DZ)      FOR LAYER 13 READ ON UNIT  31 USING FORMAT: "         (120E15.6) "
                     ------------------------------------------------------------------------------------------

                     CELL THICKNESS (DZ)      FOR LAYER 14 READ ON UNIT  31 USING FORMAT: "         (120E15.6) "
                     ------------------------------------------------------------------------------------------

                     CELL THICKNESS (DZ)      FOR LAYER 15 READ ON UNIT  31 USING FORMAT: "         (120E15.6) "
                     ------------------------------------------------------------------------------------------

                     CELL THICKNESS (DZ)      FOR LAYER 16 READ ON UNIT  31 USING FORMAT: "         (120E15.6) "
                     ------------------------------------------------------------------------------------------

                     CELL THICKNESS (DZ)      FOR LAYER 17 READ ON UNIT  31 USING FORMAT: "         (120E15.6) "
                     ------------------------------------------------------------------------------------------

                     CELL THICKNESS (DZ)      FOR LAYER 18 READ ON UNIT  31 USING FORMAT: "         (120E15.6) "
                     ------------------------------------------------------------------------------------------

                     CELL THICKNESS (DZ)      FOR LAYER 19 READ ON UNIT  31 USING FORMAT: "         (120E15.6) "
                     ------------------------------------------------------------------------------------------

                     CELL THICKNESS (DZ)      FOR LAYER 20 READ ON UNIT  31 USING FORMAT: "         (120E15.6) "
                     ------------------------------------------------------------------------------------------

                     CELL THICKNESS (DZ)      FOR LAYER 21 READ ON UNIT  31 USING FORMAT: "         (120E15.6) "
                     ------------------------------------------------------------------------------------------

                     CELL THICKNESS (DZ)      FOR LAYER 22 READ ON UNIT  31 USING FORMAT: "         (120E15.6) "
                     ------------------------------------------------------------------------------------------

                     CELL THICKNESS (DZ)      FOR LAYER 23 READ ON UNIT  31 USING FORMAT: "         (120E15.6) "
                     ------------------------------------------------------------------------------------------

                     CELL THICKNESS (DZ)      FOR LAYER 24 READ ON UNIT  31 USING FORMAT: "         (120E15.6) "
                     ------------------------------------------------------------------------------------------

                     CELL THICKNESS (DZ)      FOR LAYER 25 READ ON UNIT  31 USING FORMAT: "         (120E15.6) "
                     ------------------------------------------------------------------------------------------

                     CELL THICKNESS (DZ)      FOR LAYER 26 READ ON UNIT  31 USING FORMAT: "         (120E15.6) "
                     ------------------------------------------------------------------------------------------

                     CELL THICKNESS (DZ)      FOR LAYER 27 READ ON UNIT  31 USING FORMAT: "         (120E15.6) "
                     ------------------------------------------------------------------------------------------

                     CELL THICKNESS (DZ)      FOR LAYER 28 READ ON UNIT  31 USING FORMAT: "         (120E15.6) "
                     ------------------------------------------------------------------------------------------

                     CELL THICKNESS (DZ)      FOR LAYER 29 READ ON UNIT  31 USING FORMAT: "         (120E15.6) "
                     ------------------------------------------------------------------------------------------

                     CELL THICKNESS (DZ)      FOR LAYER 30 READ ON UNIT  31 USING FORMAT: "         (120E15.6) "
                     ------------------------------------------------------------------------------------------

                     CELL THICKNESS (DZ)      FOR LAYER 31 READ ON UNIT  31 USING FORMAT: "         (120E15.6) "
                     ------------------------------------------------------------------------------------------

                     CELL THICKNESS (DZ)      FOR LAYER 32 READ ON UNIT  31 USING FORMAT: "         (120E15.6) "
                     ------------------------------------------------------------------------------------------

                     CELL THICKNESS (DZ)      FOR LAYER 33 READ ON UNIT  31 USING FORMAT: "         (120E15.6) "
                     ------------------------------------------------------------------------------------------

                     CELL THICKNESS (DZ)      FOR LAYER 34 READ ON UNIT  31 USING FORMAT: "         (120E15.6) "
                     ------------------------------------------------------------------------------------------

                     CELL THICKNESS (DZ)      FOR LAYER 35 READ ON UNIT  31 USING FORMAT: "         (120E15.6) "
                     ------------------------------------------------------------------------------------------

                     CELL THICKNESS (DZ)      FOR LAYER 36 READ ON UNIT  31 USING FORMAT: "         (120E15.6) "
                     ------------------------------------------------------------------------------------------

                     CELL THICKNESS (DZ)      FOR LAYER 37 READ ON UNIT  31 USING FORMAT: "         (120E15.6) "
                     ------------------------------------------------------------------------------------------

                     CELL THICKNESS (DZ)      FOR LAYER 38 READ ON UNIT  31 USING FORMAT: "         (120E15.6) "
                     ------------------------------------------------------------------------------------------

                     CELL THICKNESS (DZ)      FOR LAYER 39 READ ON UNIT  31 USING FORMAT: "         (120E15.6) "
                     ------------------------------------------------------------------------------------------

                     CELL THICKNESS (DZ)      FOR LAYER 40 READ ON UNIT  31 USING FORMAT: "         (120E15.6) "
                     ------------------------------------------------------------------------------------------

                     POROSITY                 FOR LAYER  1 READ ON UNIT  31 USING FORMAT: "         (120E15.6) "
                     ------------------------------------------------------------------------------------------

                     POROSITY                 FOR LAYER  2 READ ON UNIT  31 USING FORMAT: "         (120E15.6) "
                     ------------------------------------------------------------------------------------------

                     POROSITY                 FOR LAYER  3 READ ON UNIT  31 USING FORMAT: "         (120E15.6) "
                     ------------------------------------------------------------------------------------------

                     POROSITY                 FOR LAYER  4 READ ON UNIT  31 USING FORMAT: "         (120E15.6) "
                     ------------------------------------------------------------------------------------------

                     POROSITY                 FOR LAYER  5 READ ON UNIT  31 USING FORMAT: "         (120E15.6) "
                     ------------------------------------------------------------------------------------------

                     POROSITY                 FOR LAYER  6 READ ON UNIT  31 USING FORMAT: "         (120E15.6) "
                     ------------------------------------------------------------------------------------------

                     POROSITY                 FOR LAYER  7 READ ON UNIT  31 USING FORMAT: "         (120E15.6) "
                     ------------------------------------------------------------------------------------------

                     POROSITY                 FOR LAYER  8 READ ON UNIT  31 USING FORMAT: "         (120E15.6) "
                     ------------------------------------------------------------------------------------------

                     POROSITY                 FOR LAYER  9 READ ON UNIT  31 USING FORMAT: "         (120E15.6) "
                     ------------------------------------------------------------------------------------------

                     POROSITY                 FOR LAYER 10 READ ON UNIT  31 USING FORMAT: "         (120E15.6) "
                     ------------------------------------------------------------------------------------------

                     POROSITY                 FOR LAYER 11 READ ON UNIT  31 USING FORMAT: "         (120E15.6) "
                     ------------------------------------------------------------------------------------------

                     POROSITY                 FOR LAYER 12 READ ON UNIT  31 USING FORMAT: "         (120E15.6) "
                     ------------------------------------------------------------------------------------------

                     POROSITY                 FOR LAYER 13 READ ON UNIT  31 USING FORMAT: "         (120E15.6) "
                     ------------------------------------------------------------------------------------------

                     POROSITY                 FOR LAYER 14 READ ON UNIT  31 USING FORMAT: "         (120E15.6) "
                     ------------------------------------------------------------------------------------------

                     POROSITY                 FOR LAYER 15 READ ON UNIT  31 USING FORMAT: "         (120E15.6) "
                     ------------------------------------------------------------------------------------------

                     POROSITY                 FOR LAYER 16 READ ON UNIT  31 USING FORMAT: "         (120E15.6) "
                     ------------------------------------------------------------------------------------------

                     POROSITY                 FOR LAYER 17 READ ON UNIT  31 USING FORMAT: "         (120E15.6) "
                     ------------------------------------------------------------------------------------------

                     POROSITY                 FOR LAYER 18 READ ON UNIT  31 USING FORMAT: "         (120E15.6) "
                     ------------------------------------------------------------------------------------------

                     POROSITY                 FOR LAYER 19 READ ON UNIT  31 USING FORMAT: "         (120E15.6) "
                     ------------------------------------------------------------------------------------------

                     POROSITY                 FOR LAYER 20 READ ON UNIT  31 USING FORMAT: "         (120E15.6) "
                     ------------------------------------------------------------------------------------------

                     POROSITY                 FOR LAYER 21 READ ON UNIT  31 USING FORMAT: "         (120E15.6) "
                     ------------------------------------------------------------------------------------------

                     POROSITY                 FOR LAYER 22 READ ON UNIT  31 USING FORMAT: "         (120E15.6) "
                     ------------------------------------------------------------------------------------------

                     POROSITY                 FOR LAYER 23 READ ON UNIT  31 USING FORMAT: "         (120E15.6) "
                     ------------------------------------------------------------------------------------------

                     POROSITY                 FOR LAYER 24 READ ON UNIT  31 USING FORMAT: "         (120E15.6) "
                     ------------------------------------------------------------------------------------------

                     POROSITY                 FOR LAYER 25 READ ON UNIT  31 USING FORMAT: "         (120E15.6) "
                     ------------------------------------------------------------------------------------------

                     POROSITY                 FOR LAYER 26 READ ON UNIT  31 USING FORMAT: "         (120E15.6) "
                     ------------------------------------------------------------------------------------------

                     POROSITY                 FOR LAYER 27 READ ON UNIT  31 USING FORMAT: "         (120E15.6) "
                     ------------------------------------------------------------------------------------------

                     POROSITY                 FOR LAYER 28 READ ON UNIT  31 USING FORMAT: "         (120E15.6) "
                     ------------------------------------------------------------------------------------------

                     POROSITY                 FOR LAYER 29 READ ON UNIT  31 USING FORMAT: "         (120E15.6) "
                     ------------------------------------------------------------------------------------------

                     POROSITY                 FOR LAYER 30 READ ON UNIT  31 USING FORMAT: "         (120E15.6) "
                     ------------------------------------------------------------------------------------------

                     POROSITY                 FOR LAYER 31 READ ON UNIT  31 USING FORMAT: "         (120E15.6) "
                     ------------------------------------------------------------------------------------------

                     POROSITY                 FOR LAYER 32 READ ON UNIT  31 USING FORMAT: "         (120E15.6) "
                     ------------------------------------------------------------------------------------------

                     POROSITY                 FOR LAYER 33 READ ON UNIT  31 USING FORMAT: "         (120E15.6) "
                     ------------------------------------------------------------------------------------------

                     POROSITY                 FOR LAYER 34 READ ON UNIT  31 USING FORMAT: "         (120E15.6) "
                     ------------------------------------------------------------------------------------------

                     POROSITY                 FOR LAYER 35 READ ON UNIT  31 USING FORMAT: "         (120E15.6) "
                     ------------------------------------------------------------------------------------------

                     POROSITY                 FOR LAYER 36 READ ON UNIT  31 USING FORMAT: "         (120E15.6) "
                     ------------------------------------------------------------------------------------------

                     POROSITY                 FOR LAYER 37 READ ON UNIT  31 USING FORMAT: "         (120E15.6) "
                     ------------------------------------------------------------------------------------------

                     POROSITY                 FOR LAYER 38 READ ON UNIT  31 USING FORMAT: "         (120E15.6) "
                     ------------------------------------------------------------------------------------------

                     POROSITY                 FOR LAYER 39 READ ON UNIT  31 USING FORMAT: "         (120E15.6) "
                     ------------------------------------------------------------------------------------------

                     POROSITY                 FOR LAYER 40 READ ON UNIT  31 USING FORMAT: "         (120E15.6) "
                     ------------------------------------------------------------------------------------------

                     CONCN. BOUNDARY ARRAY    FOR LAYER  1 READ ON UNIT  31 USING FORMAT: "           (120I10) "
                     ------------------------------------------------------------------------------------------

                     CONCN. BOUNDARY ARRAY    FOR LAYER  2 READ ON UNIT  31 USING FORMAT: "           (120I10) "
                     ------------------------------------------------------------------------------------------

                     CONCN. BOUNDARY ARRAY    FOR LAYER  3 READ ON UNIT  31 USING FORMAT: "           (120I10) "
                     ------------------------------------------------------------------------------------------

                     CONCN. BOUNDARY ARRAY    FOR LAYER  4 READ ON UNIT  31 USING FORMAT: "           (120I10) "
                     ------------------------------------------------------------------------------------------

                     CONCN. BOUNDARY ARRAY    FOR LAYER  5 READ ON UNIT  31 USING FORMAT: "           (120I10) "
                     ------------------------------------------------------------------------------------------

                     CONCN. BOUNDARY ARRAY    FOR LAYER  6 READ ON UNIT  31 USING FORMAT: "           (120I10) "
                     ------------------------------------------------------------------------------------------

                     CONCN. BOUNDARY ARRAY    FOR LAYER  7 READ ON UNIT  31 USING FORMAT: "           (120I10) "
                     ------------------------------------------------------------------------------------------

                     CONCN. BOUNDARY ARRAY    FOR LAYER  8 READ ON UNIT  31 USING FORMAT: "           (120I10) "
                     ------------------------------------------------------------------------------------------

                     CONCN. BOUNDARY ARRAY    FOR LAYER  9 READ ON UNIT  31 USING FORMAT: "           (120I10) "
                     ------------------------------------------------------------------------------------------

                     CONCN. BOUNDARY ARRAY    FOR LAYER 10 READ ON UNIT  31 USING FORMAT: "           (120I10) "
                     ------------------------------------------------------------------------------------------

                     CONCN. BOUNDARY ARRAY    FOR LAYER 11 READ ON UNIT  31 USING FORMAT: "           (120I10) "
                     ------------------------------------------------------------------------------------------

                     CONCN. BOUNDARY ARRAY    FOR LAYER 12 READ ON UNIT  31 USING FORMAT: "           (120I10) "
                     ------------------------------------------------------------------------------------------

                     CONCN. BOUNDARY ARRAY    FOR LAYER 13 READ ON UNIT  31 USING FORMAT: "           (120I10) "
                     ------------------------------------------------------------------------------------------

                     CONCN. BOUNDARY ARRAY    FOR LAYER 14 READ ON UNIT  31 USING FORMAT: "           (120I10) "
                     ------------------------------------------------------------------------------------------

                     CONCN. BOUNDARY ARRAY    FOR LAYER 15 READ ON UNIT  31 USING FORMAT: "           (120I10) "
                     ------------------------------------------------------------------------------------------

                     CONCN. BOUNDARY ARRAY    FOR LAYER 16 READ ON UNIT  31 USING FORMAT: "           (120I10) "
                     ------------------------------------------------------------------------------------------

                     CONCN. BOUNDARY ARRAY    FOR LAYER 17 READ ON UNIT  31 USING FORMAT: "           (120I10) "
                     ------------------------------------------------------------------------------------------

                     CONCN. BOUNDARY ARRAY    FOR LAYER 18 READ ON UNIT  31 USING FORMAT: "           (120I10) "
                     ------------------------------------------------------------------------------------------

                     CONCN. BOUNDARY ARRAY    FOR LAYER 19 READ ON UNIT  31 USING FORMAT: "           (120I10) "
                     ------------------------------------------------------------------------------------------

                     CONCN. BOUNDARY ARRAY    FOR LAYER 20 READ ON UNIT  31 USING FORMAT: "           (120I10) "
                     ------------------------------------------------------------------------------------------

                     CONCN. BOUNDARY ARRAY    FOR LAYER 21 READ ON UNIT  31 USING FORMAT: "           (120I10) "
                     ------------------------------------------------------------------------------------------

                     CONCN. BOUNDARY ARRAY    FOR LAYER 22 READ ON UNIT  31 USING FORMAT: "           (120I10) "
                     ------------------------------------------------------------------------------------------

                     CONCN. BOUNDARY ARRAY    FOR LAYER 23 READ ON UNIT  31 USING FORMAT: "           (120I10) "
                     ------------------------------------------------------------------------------------------

                     CONCN. BOUNDARY ARRAY    FOR LAYER 24 READ ON UNIT  31 USING FORMAT: "           (120I10) "
                     ------------------------------------------------------------------------------------------

                     CONCN. BOUNDARY ARRAY    FOR LAYER 25 READ ON UNIT  31 USING FORMAT: "           (120I10) "
                     ------------------------------------------------------------------------------------------

                     CONCN. BOUNDARY ARRAY    FOR LAYER 26 READ ON UNIT  31 USING FORMAT: "           (120I10) "
                     ------------------------------------------------------------------------------------------

                     CONCN. BOUNDARY ARRAY    FOR LAYER 27 READ ON UNIT  31 USING FORMAT: "           (120I10) "
                     ------------------------------------------------------------------------------------------

                     CONCN. BOUNDARY ARRAY    FOR LAYER 28 READ ON UNIT  31 USING FORMAT: "           (120I10) "
                     ------------------------------------------------------------------------------------------

                     CONCN. BOUNDARY ARRAY    FOR LAYER 29 READ ON UNIT  31 USING FORMAT: "           (120I10) "
                     ------------------------------------------------------------------------------------------

                     CONCN. BOUNDARY ARRAY    FOR LAYER 30 READ ON UNIT  31 USING FORMAT: "           (120I10) "
                     ------------------------------------------------------------------------------------------

                     CONCN. BOUNDARY ARRAY    FOR LAYER 31 READ ON UNIT  31 USING FORMAT: "           (120I10) "
                     ------------------------------------------------------------------------------------------

                     CONCN. BOUNDARY ARRAY    FOR LAYER 32 READ ON UNIT  31 USING FORMAT: "           (120I10) "
                     ------------------------------------------------------------------------------------------

                     CONCN. BOUNDARY ARRAY    FOR LAYER 33 READ ON UNIT  31 USING FORMAT: "           (120I10) "
                     ------------------------------------------------------------------------------------------

                     CONCN. BOUNDARY ARRAY    FOR LAYER 34 READ ON UNIT  31 USING FORMAT: "           (120I10) "
                     ------------------------------------------------------------------------------------------

                     CONCN. BOUNDARY ARRAY    FOR LAYER 35 READ ON UNIT  31 USING FORMAT: "           (120I10) "
                     ------------------------------------------------------------------------------------------

                     CONCN. BOUNDARY ARRAY    FOR LAYER 36 READ ON UNIT  31 USING FORMAT: "           (120I10) "
                     ------------------------------------------------------------------------------------------

                     CONCN. BOUNDARY ARRAY    FOR LAYER 37 READ ON UNIT  31 USING FORMAT: "           (120I10) "
                     ------------------------------------------------------------------------------------------

                     CONCN. BOUNDARY ARRAY    FOR LAYER 38 READ ON UNIT  31 USING FORMAT: "           (120I10) "
                     ------------------------------------------------------------------------------------------

                     CONCN. BOUNDARY ARRAY    FOR LAYER 39 READ ON UNIT  31 USING FORMAT: "           (120I10) "
                     ------------------------------------------------------------------------------------------

                     CONCN. BOUNDARY ARRAY    FOR LAYER 40 READ ON UNIT  31 USING FORMAT: "           (120I10) "
                     ------------------------------------------------------------------------------------------

                     INITIAL CONC.: COMP.  01 FOR LAYER  1 READ ON UNIT  31 USING FORMAT: "         (120E15.6) "
                     ------------------------------------------------------------------------------------------

                     INITIAL CONC.: COMP.  01 FOR LAYER  2 READ ON UNIT  31 USING FORMAT: "         (120E15.6) "
                     ------------------------------------------------------------------------------------------

                     INITIAL CONC.: COMP.  01 FOR LAYER  3 READ ON UNIT  31 USING FORMAT: "         (120E15.6) "
                     ------------------------------------------------------------------------------------------

                     INITIAL CONC.: COMP.  01 FOR LAYER  4 READ ON UNIT  31 USING FORMAT: "         (120E15.6) "
                     ------------------------------------------------------------------------------------------

                     INITIAL CONC.: COMP.  01 FOR LAYER  5 READ ON UNIT  31 USING FORMAT: "         (120E15.6) "
                     ------------------------------------------------------------------------------------------

                     INITIAL CONC.: COMP.  01 FOR LAYER  6 READ ON UNIT  31 USING FORMAT: "         (120E15.6) "
                     ------------------------------------------------------------------------------------------

                     INITIAL CONC.: COMP.  01 FOR LAYER  7 READ ON UNIT  31 USING FORMAT: "         (120E15.6) "
                     ------------------------------------------------------------------------------------------

                     INITIAL CONC.: COMP.  01 FOR LAYER  8 READ ON UNIT  31 USING FORMAT: "         (120E15.6) "
                     ------------------------------------------------------------------------------------------

                     INITIAL CONC.: COMP.  01 FOR LAYER  9 READ ON UNIT  31 USING FORMAT: "         (120E15.6) "
                     ------------------------------------------------------------------------------------------

                     INITIAL CONC.: COMP.  01 FOR LAYER 10 READ ON UNIT  31 USING FORMAT: "         (120E15.6) "
                     ------------------------------------------------------------------------------------------

                     INITIAL CONC.: COMP.  01 FOR LAYER 11 READ ON UNIT  31 USING FORMAT: "         (120E15.6) "
                     ------------------------------------------------------------------------------------------

                     INITIAL CONC.: COMP.  01 FOR LAYER 12 READ ON UNIT  31 USING FORMAT: "         (120E15.6) "
                     ------------------------------------------------------------------------------------------

                     INITIAL CONC.: COMP.  01 FOR LAYER 13 READ ON UNIT  31 USING FORMAT: "         (120E15.6) "
                     ------------------------------------------------------------------------------------------

                     INITIAL CONC.: COMP.  01 FOR LAYER 14 READ ON UNIT  31 USING FORMAT: "         (120E15.6) "
                     ------------------------------------------------------------------------------------------

                     INITIAL CONC.: COMP.  01 FOR LAYER 15 READ ON UNIT  31 USING FORMAT: "         (120E15.6) "
                     ------------------------------------------------------------------------------------------

                     INITIAL CONC.: COMP.  01 FOR LAYER 16 READ ON UNIT  31 USING FORMAT: "         (120E15.6) "
                     ------------------------------------------------------------------------------------------

                     INITIAL CONC.: COMP.  01 FOR LAYER 17 READ ON UNIT  31 USING FORMAT: "         (120E15.6) "
                     ------------------------------------------------------------------------------------------

                     INITIAL CONC.: COMP.  01 FOR LAYER 18 READ ON UNIT  31 USING FORMAT: "         (120E15.6) "
                     ------------------------------------------------------------------------------------------

                     INITIAL CONC.: COMP.  01 FOR LAYER 19 READ ON UNIT  31 USING FORMAT: "         (120E15.6) "
                     ------------------------------------------------------------------------------------------

                     INITIAL CONC.: COMP.  01 FOR LAYER 20 READ ON UNIT  31 USING FORMAT: "         (120E15.6) "
                     ------------------------------------------------------------------------------------------

                     INITIAL CONC.: COMP.  01 FOR LAYER 21 READ ON UNIT  31 USING FORMAT: "         (120E15.6) "
                     ------------------------------------------------------------------------------------------

                     INITIAL CONC.: COMP.  01 FOR LAYER 22 READ ON UNIT  31 USING FORMAT: "         (120E15.6) "
                     ------------------------------------------------------------------------------------------

                     INITIAL CONC.: COMP.  01 FOR LAYER 23 READ ON UNIT  31 USING FORMAT: "         (120E15.6) "
                     ------------------------------------------------------------------------------------------

                     INITIAL CONC.: COMP.  01 FOR LAYER 24 READ ON UNIT  31 USING FORMAT: "         (120E15.6) "
                     ------------------------------------------------------------------------------------------

                     INITIAL CONC.: COMP.  01 FOR LAYER 25 READ ON UNIT  31 USING FORMAT: "         (120E15.6) "
                     ------------------------------------------------------------------------------------------

                     INITIAL CONC.: COMP.  01 FOR LAYER 26 READ ON UNIT  31 USING FORMAT: "         (120E15.6) "
                     ------------------------------------------------------------------------------------------

                     INITIAL CONC.: COMP.  01 FOR LAYER 27 READ ON UNIT  31 USING FORMAT: "         (120E15.6) "
                     ------------------------------------------------------------------------------------------

                     INITIAL CONC.: COMP.  01 FOR LAYER 28 READ ON UNIT  31 USING FORMAT: "         (120E15.6) "
                     ------------------------------------------------------------------------------------------

                     INITIAL CONC.: COMP.  01 FOR LAYER 29 READ ON UNIT  31 USING FORMAT: "         (120E15.6) "
                     ------------------------------------------------------------------------------------------

                     INITIAL CONC.: COMP.  01 FOR LAYER 30 READ ON UNIT  31 USING FORMAT: "         (120E15.6) "
                     ------------------------------------------------------------------------------------------

                     INITIAL CONC.: COMP.  01 FOR LAYER 31 READ ON UNIT  31 USING FORMAT: "         (120E15.6) "
                     ------------------------------------------------------------------------------------------

                     INITIAL CONC.: COMP.  01 FOR LAYER 32 READ ON UNIT  31 USING FORMAT: "         (120E15.6) "
                     ------------------------------------------------------------------------------------------

                     INITIAL CONC.: COMP.  01 FOR LAYER 33 READ ON UNIT  31 USING FORMAT: "         (120E15.6) "
                     ------------------------------------------------------------------------------------------

                     INITIAL CONC.: COMP.  01 FOR LAYER 34 READ ON UNIT  31 USING FORMAT: "         (120E15.6) "
                     ------------------------------------------------------------------------------------------

                     INITIAL CONC.: COMP.  01 FOR LAYER 35 READ ON UNIT  31 USING FORMAT: "         (120E15.6) "
                     ------------------------------------------------------------------------------------------

                     INITIAL CONC.: COMP.  01 FOR LAYER 36 READ ON UNIT  31 USING FORMAT: "         (120E15.6) "
                     ------------------------------------------------------------------------------------------

                     INITIAL CONC.: COMP.  01 FOR LAYER 37 READ ON UNIT  31 USING FORMAT: "         (120E15.6) "
                     ------------------------------------------------------------------------------------------

                     INITIAL CONC.: COMP.  01 FOR LAYER 38 READ ON UNIT  31 USING FORMAT: "         (120E15.6) "
                     ------------------------------------------------------------------------------------------

                     INITIAL CONC.: COMP.  01 FOR LAYER 39 READ ON UNIT  31 USING FORMAT: "         (120E15.6) "
                     ------------------------------------------------------------------------------------------

                     INITIAL CONC.: COMP.  01 FOR LAYER 40 READ ON UNIT  31 USING FORMAT: "         (120E15.6) "
                     ------------------------------------------------------------------------------------------

 VALUE INDICATING INACTIVE CONCENTRATION CELLS =   0.1000000E+31
 MINIMUM SATURATED THICKNESS [THKMIN] ALLOWED =  0.0100000 OF TOTAL CELL THICKNESS


 OUTPUT CONTROL OPTIONS
 ----------------------

 DO NOT PRINT CELL CONCENTRATION
 DO NOT PRINT PARTICLE NUMBER IN EACH CELL
 DO NOT PRINT RETARDATION FACTOR
 DO NOT PRINT DISPERSION COEFFICIENT
 SAVE DISSOLVED PHASE CONCENTRATIONS IN UNFORMATTED FILES [MT3Dnnn.UCN]
  FOR EACH SPECIES ON UNITS 201 AND ABOVE

 NUMBER OF TIMES AT WHICH SIMULATION RESULTS ARE SAVED =  100
 TOTAL ELAPSED TIMES AT WHICH SIMULATION RESULTS ARE SAVED: 
    0.0000      0.82000       1.6400       2.4600       3.2800       4.1000       4.9200       5.7400    
    6.5600       7.3800       8.2000       9.0200       9.8400       10.660       11.480       12.300    
    13.120       13.940       14.760       15.580       16.400       17.220       18.040       18.860    
    19.680       20.500       21.320       22.140       22.960       23.780       24.600       25.420    
    26.240       27.060       27.880       28.700       29.520       30.340       31.160       31.980    
    32.800       33.620       34.440       35.260       36.080       36.900       37.720       38.540    
    39.360       40.180       41.000       41.820       42.640       43.460       44.280       45.100    
    45.920       46.740       47.560       48.380       49.200       50.020       50.840       51.660    
    52.480       53.300       54.120       54.940       55.760       56.580       57.400       58.220    
    59.040       59.860       60.680       61.500       62.320       63.140       63.960       64.780    
    65.600       66.420       67.240       68.060       68.880       69.700       70.520       71.340    
    72.160       72.980       73.800       74.620       75.440       76.260       77.080       77.900    
    78.720       79.540       80.360       81.180    

 NUMBER OF OBSERVATION POINTS =    0

 SAVE ONE-LINE SUMMARY OF MASS BUDGETS IN FILES [MT3Dnnn.MAS]
  FOR EACH SPECIES ON UNITS 601 AND ABOVE, EVERY  1 TRANSPORT STEPS

 MAXIMUM LENGTH ALONG THE X (J) AXIS =   1.199999    
 MAXIMUM LENGTH ALONG THE Y (I) AXIS =  0.3000000E-01
 MAXIMUM LENGTH ALONG THE Z (K) AXIS =  0.4000000    
 FMI1 -- FLOW MODEL INTERFACE PACKAGE, VERSION 1, MAY 2016, INPUT READ FROM UNIT 10
 FLOW MODEL IS STEADY-STATE
 FLOW MODEL CONTAINS CONSTANT-HEAD CELLS


 ADV1 -- ADVECTION PACKAGE, VERSION 1, MAY 2016, INPUT READ FROM UNIT 32
 ADVECTION IS SOLVED WITH THE ULTIMATE SCHEME
 COURANT NUMBER ALLOWED IN SOLVING THE ADVECTION TERM = 0.750    


 ADVECTION SOLUTION OPTIONS
 --------------------------

 ADVECTION IS SOLVED WITH THE ULTIMATE SCHEME
 COURANT NUMBER ALLOWED IN SOLVING THE ADVECTION TERM = 0.750    

 DSP1 -- DISPERSION PACKAGE, VERSION 1, MAY 2016, INPUT READ FROM UNIT 33


 DISPERSION INPUT PARAMETERS
 ---------------------------

                                       LONG. DISPERSIVITY (AL)  =  0.1000000E-01 FOR LAYER  1
                                       LONG. DISPERSIVITY (AL)  =  0.1000000E-01 FOR LAYER  2
                                       LONG. DISPERSIVITY (AL)  =  0.1000000E-01 FOR LAYER  3
                                       LONG. DISPERSIVITY (AL)  =  0.1000000E-01 FOR LAYER  4
                                       LONG. DISPERSIVITY (AL)  =  0.1000000E-01 FOR LAYER  5
                                       LONG. DISPERSIVITY (AL)  =  0.1000000E-01 FOR LAYER  6
                                       LONG. DISPERSIVITY (AL)  =  0.1000000E-01 FOR LAYER  7
                                       LONG. DISPERSIVITY (AL)  =  0.1000000E-01 FOR LAYER  8
                                       LONG. DISPERSIVITY (AL)  =  0.1000000E-01 FOR LAYER  9
                                       LONG. DISPERSIVITY (AL)  =  0.1000000E-01 FOR LAYER 10
                                       LONG. DISPERSIVITY (AL)  =  0.1000000E-01 FOR LAYER 11
                                       LONG. DISPERSIVITY (AL)  =  0.1000000E-01 FOR LAYER 12
                                       LONG. DISPERSIVITY (AL)  =  0.1000000E-01 FOR LAYER 13
                                       LONG. DISPERSIVITY (AL)  =  0.1000000E-01 FOR LAYER 14
                                       LONG. DISPERSIVITY (AL)  =  0.1000000E-01 FOR LAYER 15
                                       LONG. DISPERSIVITY (AL)  =  0.1000000E-01 FOR LAYER 16
                                       LONG. DISPERSIVITY (AL)  =  0.1000000E-01 FOR LAYER 17
                                       LONG. DISPERSIVITY (AL)  =  0.1000000E-01 FOR LAYER 18
                                       LONG. DISPERSIVITY (AL)  =  0.1000000E-01 FOR LAYER 19
                                       LONG. DISPERSIVITY (AL)  =  0.1000000E-01 FOR LAYER 20
                                       LONG. DISPERSIVITY (AL)  =  0.1000000E-01 FOR LAYER 21
                                       LONG. DISPERSIVITY (AL)  =  0.1000000E-01 FOR LAYER 22
                                       LONG. DISPERSIVITY (AL)  =  0.1000000E-01 FOR LAYER 23
                                       LONG. DISPERSIVITY (AL)  =  0.1000000E-01 FOR LAYER 24
                                       LONG. DISPERSIVITY (AL)  =  0.1000000E-01 FOR LAYER 25
                                       LONG. DISPERSIVITY (AL)  =  0.1000000E-01 FOR LAYER 26
                                       LONG. DISPERSIVITY (AL)  =  0.1000000E-01 FOR LAYER 27
                                       LONG. DISPERSIVITY (AL)  =  0.1000000E-01 FOR LAYER 28
                                       LONG. DISPERSIVITY (AL)  =  0.1000000E-01 FOR LAYER 29
                                       LONG. DISPERSIVITY (AL)  =  0.1000000E-01 FOR LAYER 30
                                       LONG. DISPERSIVITY (AL)  =  0.1000000E-01 FOR LAYER 31
                                       LONG. DISPERSIVITY (AL)  =  0.1000000E-01 FOR LAYER 32
                                       LONG. DISPERSIVITY (AL)  =  0.1000000E-01 FOR LAYER 33
                                       LONG. DISPERSIVITY (AL)  =  0.1000000E-01 FOR LAYER 34
                                       LONG. DISPERSIVITY (AL)  =  0.1000000E-01 FOR LAYER 35
                                       LONG. DISPERSIVITY (AL)  =  0.1000000E-01 FOR LAYER 36
                                       LONG. DISPERSIVITY (AL)  =  0.1000000E-01 FOR LAYER 37
                                       LONG. DISPERSIVITY (AL)  =  0.1000000E-01 FOR LAYER 38
                                       LONG. DISPERSIVITY (AL)  =  0.1000000E-01 FOR LAYER 39
                                       LONG. DISPERSIVITY (AL)  =  0.1000000E-01 FOR LAYER 40
                                       H. TRANS./LONG. DISP.    =  0.1000000    
                                       V. TRANS./LONG. DISP.    =  0.1000000    
                                       DIFFUSION COEFFICIENT    =  0.1123200E-03

 SSM1 -- SINK & SOURCE MIXING PACKAGE, VERSION 1, MAY 2016, INPUT READ FROM UNIT 34
 HEADER LINE OF THE SSM PACKAGE INPUT FILE:
  T F F F F F F F F F F F F F F F                                        
 MAJOR STRESS COMPONENTS PRESENT IN THE FLOW MODEL:
  o WELL [WEL]
 MAXIMUM NUMBER OF POINT SINKS/SOURCES =      80

 GCG1 -- GENERALIZED CONJUGATE GRADIENT SOLVER PACKAGE, VERSION 1, OCTOBER 2010 INPUT READ FROM UNIT 35
 MAXIMUM OF    1 OUTER ITERATIONS
        AND   50 INNER ITERATIONS ALLOWED FOR CLOSURE
 THE PRECONDITIONING TYPE SELECTED IS MODIFIED INCOMPLETE CHOLESKY (MIC).
 DISPERSION CROSS TERMS LUMPED INTO RIGHT-HAND-SIDE



                                               SOLUTION BY THE GENERALIZED CONJUGATE GRADIENT METHOD
                                               -----------------------------------------------------
                                     MAXIMUM OUTER ITERATIONS ALLOWED FOR CLOSURE =        1
                                     MAXIMUM INNER ITERATIONS ALLOWED FOR CLOSURE =       50
                                                    PRECONDITIONING TYPE SELECTED =    3
                                                           ACCELERATION PARAMETER =     1.0000    
                                       CONCENTRATION CHANGE CRITERION FOR CLOSURE =    0.10000E-04
                                       GCG CONCENTRATION CHANGE PRINTOUT INTERVAL =      999


                                   ++++++++++++++++++++++++++++++++++++++++++++++++++++++++++++++
                                                       STRESS PERIOD NO.  001
                                   ++++++++++++++++++++++++++++++++++++++++++++++++++++++++++++++


 LENGTH OF CURRENT STRESS PERIOD =   10.00000    
 NUMBER OF TIME STEPS FOR CURRENT STRESS PERIOD =    1
 TIME STEP MULTIPLIER USED IN FLOW SOLUTION =   1.000000    

 ***Type of Transport Simulation is TRANSIENT

 USER-SPECIFIED TRANSPORT STEPSIZE =   0.000000    D   
 MAXIMUM NUMBER OF TRANSPORT STEPS ALLOWED  IN ONE FLOW TIME STEP =     50000
 MULTIPLIER FOR SUCCESSIVE TRANSPORT STEPS  [USED IN IMPLICIT SCHEMES] =     1.000
 MAXIMUM TRANSPORT STEP SIZE  [USED IN IMPLICIT SCHEMES] =   0.000000    D   

       NO    LAYER   ROW   COLUMN   CONCENTRATION       TYPE            COMPONENT
       1       1       1       1       1.000000         WELL                1
       2       2       1       1       1.000000         WELL                1
       3       3       1       1       1.000000         WELL                1
       4       4       1       1       1.000000         WELL                1
       5       5       1       1       1.000000         WELL                1
       6       6       1       1       1.000000         WELL                1
       7       7       1       1       1.000000         WELL                1
       8       8       1       1       1.000000         WELL                1
       9       9       1       1       1.000000         WELL                1
      10      10       1       1       1.000000         WELL                1
      11      11       1       1       1.000000         WELL                1
      12      12       1       1       1.000000         WELL                1
      13      13       1       1       1.000000         WELL                1
      14      14       1       1       1.000000         WELL                1
      15      15       1       1       1.000000         WELL                1
      16      16       1       1       1.000000         WELL                1
      17      17       1       1       1.000000         WELL                1
      18      18       1       1       1.000000         WELL                1
      19      19       1       1       1.000000         WELL                1
      20      20       1       1       1.000000         WELL                1
      21      21       1       1       1.000000         WELL                1
      22      22       1       1       1.000000         WELL                1
      23      23       1       1       1.000000         WELL                1
      24      24       1       1       1.000000         WELL                1
      25      25       1       1       1.000000         WELL                1
      26      26       1       1       1.000000         WELL                1
      27      27       1       1       1.000000         WELL                1
      28      28       1       1       1.000000         WELL                1
      29      29       1       1       1.000000         WELL                1
      30      30       1       1       1.000000         WELL                1
      31      31       1       1       1.000000         WELL                1
      32      32       1       1       1.000000         WELL                1
      33      33       1       1       1.000000         WELL                1
      34      34       1       1       1.000000         WELL                1
      35      35       1       1       1.000000         WELL                1
      36      36       1       1       1.000000         WELL                1
      37      37       1       1       1.000000         WELL                1
      38      38       1       1       1.000000         WELL                1
      39      39       1       1       1.000000         WELL                1
      40      40       1       1       1.000000         WELL                1


                                          ================================================
                                                         TIME STEP NO.  001
                                          ================================================

 FROM TIME =   0.0000     TO    10.000    


                    "THKSAT          " FLOW TERMS FOR TIME STEP  1, STRESS PERIOD  1 READ UNFORMATTED ON UNIT 10
                    --------------------------------------------------------------------------------------------

                    "QXX             " FLOW TERMS FOR TIME STEP  1, STRESS PERIOD  1 READ UNFORMATTED ON UNIT 10
                    --------------------------------------------------------------------------------------------

                    "QZZ             " FLOW TERMS FOR TIME STEP  1, STRESS PERIOD  1 READ UNFORMATTED ON UNIT 10
                    --------------------------------------------------------------------------------------------

 MAXIMUM STEPSIZE DURING WHICH ANY PARTICLE CANNOT MOVE MORE THAN ONE CELL
 = 0.3067E-01(WHEN MIN. R.F.=1)  AT K=  10, I=   1, J=  16

 MAXIMUM STEPSIZE WHICH MEETS STABILITY CRITERION OF THE ADVECTION TERM
 (FOR PURE FINITE-DIFFERENCE OPTION, MIXELM=0) 
 = 0.2409E-01(WHEN MIN. R.F.=1)  AT K=  10, I=   1, J=  15

                    "CNH             " FLOW TERMS FOR TIME STEP  1, STRESS PERIOD  1 READ UNFORMATTED ON UNIT 10
                    --------------------------------------------------------------------------------------------

                    "WEL             " FLOW TERMS FOR TIME STEP  1, STRESS PERIOD  1 READ UNFORMATTED ON UNIT 10
                    --------------------------------------------------------------------------------------------


 TOTAL NUMBER OF POINT SOURCES/SINKS PRESENT IN THE FLOW MODEL =    80

 MAXIMUM STEPSIZE WHICH MEETS STABILITY CRITERION OF THE SINK & SOURCE TERM
 = 0.7778E-01(WHEN MIN. R.F.=1)  AT K=  16, I=   1, J=   1

 MAXIMUM STEPSIZE WHICH MEETS STABILITY CRITERION OF THE DISPERSION TERM
 = 0.1228E-01(WHEN MIN. R.F.=1)  AT K=  10, I=   1, J=  15



 >>>>>>>>>>>>>>>>>>>>>>>>>>>>>>>>>>>>>>>>>>>>>>>>>>>>>>>FOR COMPONENT NO. 01<<<<<<<<<<<<<<<<<<<<<<<<<<<<<<<<<<<<<<<<<<<<<<<<<<<<<<<


                                            -------------------------------------------
                                                      TRANSPORT STEP NO.    1
                                            -------------------------------------------

 TOTAL ELAPSED TIME SINCE BEGINNING OF SIMULATION =   0.000000    D   
 .....................................................................

                     CUMULATIVE MASS BUDGETS AT END OF TRANSPORT STEP    1, TIME STEP    1, STRESS PERIOD    1
                     -----------------------------------------------------------------------------------------

                                                             IN                           OUT
                                                      ----------------             ----------------
                               CONSTANT CONCENTRATION:    0.000000                    0.000000    
                                        CONSTANT HEAD:    0.000000                    0.000000    
                                                WELLS:    0.000000                    0.000000    
                               MASS STOR (FLOW MODEL):    0.000000                    0.000000    
                                MASS STORAGE (SOLUTE):    0.000000                    0.000000    
                            ---------------------------------------------------------------------------
                                              [TOTAL]:    0.000000     KG             0.000000     KG  

                                                          NET (IN - OUT):    0.000000    
                                                   DISCREPANCY (PERCENT):    0.000000    
     1 CALLS TO GCG PACKAGE FOR TRANSPORT TIME STEP     2 IN FLOW TIME STEP     1 STRESS PERIOD     1
      4 TOTAL ITERATIONS
     1 CALLS TO GCG PACKAGE FOR TRANSPORT TIME STEP     3 IN FLOW TIME STEP     1 STRESS PERIOD     1
      4 TOTAL ITERATIONS
     1 CALLS TO GCG PACKAGE FOR TRANSPORT TIME STEP     4 IN FLOW TIME STEP     1 STRESS PERIOD     1
      4 TOTAL ITERATIONS
     1 CALLS TO GCG PACKAGE FOR TRANSPORT TIME STEP     5 IN FLOW TIME STEP     1 STRESS PERIOD     1
      4 TOTAL ITERATIONS
     1 CALLS TO GCG PACKAGE FOR TRANSPORT TIME STEP     6 IN FLOW TIME STEP     1 STRESS PERIOD     1
      4 TOTAL ITERATIONS
     1 CALLS TO GCG PACKAGE FOR TRANSPORT TIME STEP     7 IN FLOW TIME STEP     1 STRESS PERIOD     1
      4 TOTAL ITERATIONS
     1 CALLS TO GCG PACKAGE FOR TRANSPORT TIME STEP     8 IN FLOW TIME STEP     1 STRESS PERIOD     1
      4 TOTAL ITERATIONS
     1 CALLS TO GCG PACKAGE FOR TRANSPORT TIME STEP     9 IN FLOW TIME STEP     1 STRESS PERIOD     1
      4 TOTAL ITERATIONS
     1 CALLS TO GCG PACKAGE FOR TRANSPORT TIME STEP    10 IN FLOW TIME STEP     1 STRESS PERIOD     1
      4 TOTAL ITERATIONS
     1 CALLS TO GCG PACKAGE FOR TRANSPORT TIME STEP    11 IN FLOW TIME STEP     1 STRESS PERIOD     1
      4 TOTAL ITERATIONS
     1 CALLS TO GCG PACKAGE FOR TRANSPORT TIME STEP    12 IN FLOW TIME STEP     1 STRESS PERIOD     1
      4 TOTAL ITERATIONS
     1 CALLS TO GCG PACKAGE FOR TRANSPORT TIME STEP    13 IN FLOW TIME STEP     1 STRESS PERIOD     1
      4 TOTAL ITERATIONS
     1 CALLS TO GCG PACKAGE FOR TRANSPORT TIME STEP    14 IN FLOW TIME STEP     1 STRESS PERIOD     1
      4 TOTAL ITERATIONS
     1 CALLS TO GCG PACKAGE FOR TRANSPORT TIME STEP    15 IN FLOW TIME STEP     1 STRESS PERIOD     1
      4 TOTAL ITERATIONS
     1 CALLS TO GCG PACKAGE FOR TRANSPORT TIME STEP    16 IN FLOW TIME STEP     1 STRESS PERIOD     1
      4 TOTAL ITERATIONS
     1 CALLS TO GCG PACKAGE FOR TRANSPORT TIME STEP    17 IN FLOW TIME STEP     1 STRESS PERIOD     1
      4 TOTAL ITERATIONS
     1 CALLS TO GCG PACKAGE FOR TRANSPORT TIME STEP    18 IN FLOW TIME STEP     1 STRESS PERIOD     1
      4 TOTAL ITERATIONS
     1 CALLS TO GCG PACKAGE FOR TRANSPORT TIME STEP    19 IN FLOW TIME STEP     1 STRESS PERIOD     1
      4 TOTAL ITERATIONS
     1 CALLS TO GCG PACKAGE FOR TRANSPORT TIME STEP    20 IN FLOW TIME STEP     1 STRESS PERIOD     1
      4 TOTAL ITERATIONS
     1 CALLS TO GCG PACKAGE FOR TRANSPORT TIME STEP    21 IN FLOW TIME STEP     1 STRESS PERIOD     1
      4 TOTAL ITERATIONS
     1 CALLS TO GCG PACKAGE FOR TRANSPORT TIME STEP    22 IN FLOW TIME STEP     1 STRESS PERIOD     1
      4 TOTAL ITERATIONS
     1 CALLS TO GCG PACKAGE FOR TRANSPORT TIME STEP    23 IN FLOW TIME STEP     1 STRESS PERIOD     1
      4 TOTAL ITERATIONS
     1 CALLS TO GCG PACKAGE FOR TRANSPORT TIME STEP    24 IN FLOW TIME STEP     1 STRESS PERIOD     1
      4 TOTAL ITERATIONS
     1 CALLS TO GCG PACKAGE FOR TRANSPORT TIME STEP    25 IN FLOW TIME STEP     1 STRESS PERIOD     1
      4 TOTAL ITERATIONS
     1 CALLS TO GCG PACKAGE FOR TRANSPORT TIME STEP    26 IN FLOW TIME STEP     1 STRESS PERIOD     1
      4 TOTAL ITERATIONS
     1 CALLS TO GCG PACKAGE FOR TRANSPORT TIME STEP    27 IN FLOW TIME STEP     1 STRESS PERIOD     1
      4 TOTAL ITERATIONS
     1 CALLS TO GCG PACKAGE FOR TRANSPORT TIME STEP    28 IN FLOW TIME STEP     1 STRESS PERIOD     1
      4 TOTAL ITERATIONS
     1 CALLS TO GCG PACKAGE FOR TRANSPORT TIME STEP    29 IN FLOW TIME STEP     1 STRESS PERIOD     1
      4 TOTAL ITERATIONS
     1 CALLS TO GCG PACKAGE FOR TRANSPORT TIME STEP    30 IN FLOW TIME STEP     1 STRESS PERIOD     1
      4 TOTAL ITERATIONS
     1 CALLS TO GCG PACKAGE FOR TRANSPORT TIME STEP    31 IN FLOW TIME STEP     1 STRESS PERIOD     1
      4 TOTAL ITERATIONS
     1 CALLS TO GCG PACKAGE FOR TRANSPORT TIME STEP    32 IN FLOW TIME STEP     1 STRESS PERIOD     1
      4 TOTAL ITERATIONS
     1 CALLS TO GCG PACKAGE FOR TRANSPORT TIME STEP    33 IN FLOW TIME STEP     1 STRESS PERIOD     1
      4 TOTAL ITERATIONS
     1 CALLS TO GCG PACKAGE FOR TRANSPORT TIME STEP    34 IN FLOW TIME STEP     1 STRESS PERIOD     1
      4 TOTAL ITERATIONS
     1 CALLS TO GCG PACKAGE FOR TRANSPORT TIME STEP    35 IN FLOW TIME STEP     1 STRESS PERIOD     1
      4 TOTAL ITERATIONS
     1 CALLS TO GCG PACKAGE FOR TRANSPORT TIME STEP    36 IN FLOW TIME STEP     1 STRESS PERIOD     1
      4 TOTAL ITERATIONS
     1 CALLS TO GCG PACKAGE FOR TRANSPORT TIME STEP    37 IN FLOW TIME STEP     1 STRESS PERIOD     1
      4 TOTAL ITERATIONS
     1 CALLS TO GCG PACKAGE FOR TRANSPORT TIME STEP    38 IN FLOW TIME STEP     1 STRESS PERIOD     1
      4 TOTAL ITERATIONS
     1 CALLS TO GCG PACKAGE FOR TRANSPORT TIME STEP    39 IN FLOW TIME STEP     1 STRESS PERIOD     1
      4 TOTAL ITERATIONS
     1 CALLS TO GCG PACKAGE FOR TRANSPORT TIME STEP    40 IN FLOW TIME STEP     1 STRESS PERIOD     1
      4 TOTAL ITERATIONS
     1 CALLS TO GCG PACKAGE FOR TRANSPORT TIME STEP    41 IN FLOW TIME STEP     1 STRESS PERIOD     1
      4 TOTAL ITERATIONS
     1 CALLS TO GCG PACKAGE FOR TRANSPORT TIME STEP    42 IN FLOW TIME STEP     1 STRESS PERIOD     1
      4 TOTAL ITERATIONS
     1 CALLS TO GCG PACKAGE FOR TRANSPORT TIME STEP    43 IN FLOW TIME STEP     1 STRESS PERIOD     1
      4 TOTAL ITERATIONS
     1 CALLS TO GCG PACKAGE FOR TRANSPORT TIME STEP    44 IN FLOW TIME STEP     1 STRESS PERIOD     1
      4 TOTAL ITERATIONS
     1 CALLS TO GCG PACKAGE FOR TRANSPORT TIME STEP    45 IN FLOW TIME STEP     1 STRESS PERIOD     1
      4 TOTAL ITERATIONS
     1 CALLS TO GCG PACKAGE FOR TRANSPORT TIME STEP    46 IN FLOW TIME STEP     1 STRESS PERIOD     1
      4 TOTAL ITERATIONS
     1 CALLS TO GCG PACKAGE FOR TRANSPORT TIME STEP    47 IN FLOW TIME STEP     1 STRESS PERIOD     1
      3 TOTAL ITERATIONS



 >>>>>>>>>>>>>>>>>>>>>>>>>>>>>>>>>>>>>>>>>>>>>>>>>>>>>>>FOR COMPONENT NO. 01<<<<<<<<<<<<<<<<<<<<<<<<<<<<<<<<<<<<<<<<<<<<<<<<<<<<<<<


                                            -------------------------------------------
                                                      TRANSPORT STEP NO.   47
                                            -------------------------------------------

 TOTAL ELAPSED TIME SINCE BEGINNING OF SIMULATION =  0.8200000    D   
 .....................................................................

                     CUMULATIVE MASS BUDGETS AT END OF TRANSPORT STEP   47, TIME STEP    1, STRESS PERIOD    1
                     -----------------------------------------------------------------------------------------

                                                             IN                           OUT
                                                      ----------------             ----------------
                               CONSTANT CONCENTRATION:    0.000000                    0.000000    
                                        CONSTANT HEAD:    0.000000                    0.000000    
                                                WELLS:   0.5060568E-03                0.000000    
                               MASS STOR (FLOW MODEL):    0.000000                    0.000000    
                                MASS STORAGE (SOLUTE):    0.000000                  -0.5060572E-03
                            ---------------------------------------------------------------------------
                                              [TOTAL]:   0.5060568E-03 KG           -0.5060572E-03 KG  

                                                          NET (IN - OUT):  -0.3492460E-09
                                                   DISCREPANCY (PERCENT):  -0.6901317E-04
     1 CALLS TO GCG PACKAGE FOR TRANSPORT TIME STEP    48 IN FLOW TIME STEP     1 STRESS PERIOD     1
      4 TOTAL ITERATIONS
     1 CALLS TO GCG PACKAGE FOR TRANSPORT TIME STEP    49 IN FLOW TIME STEP     1 STRESS PERIOD     1
      4 TOTAL ITERATIONS
     1 CALLS TO GCG PACKAGE FOR TRANSPORT TIME STEP    50 IN FLOW TIME STEP     1 STRESS PERIOD     1
      4 TOTAL ITERATIONS
     1 CALLS TO GCG PACKAGE FOR TRANSPORT TIME STEP    51 IN FLOW TIME STEP     1 STRESS PERIOD     1
      4 TOTAL ITERATIONS
     1 CALLS TO GCG PACKAGE FOR TRANSPORT TIME STEP    52 IN FLOW TIME STEP     1 STRESS PERIOD     1
      4 TOTAL ITERATIONS
     1 CALLS TO GCG PACKAGE FOR TRANSPORT TIME STEP    53 IN FLOW TIME STEP     1 STRESS PERIOD     1
      4 TOTAL ITERATIONS
     1 CALLS TO GCG PACKAGE FOR TRANSPORT TIME STEP    54 IN FLOW TIME STEP     1 STRESS PERIOD     1
      4 TOTAL ITERATIONS
     1 CALLS TO GCG PACKAGE FOR TRANSPORT TIME STEP    55 IN FLOW TIME STEP     1 STRESS PERIOD     1
      4 TOTAL ITERATIONS
     1 CALLS TO GCG PACKAGE FOR TRANSPORT TIME STEP    56 IN FLOW TIME STEP     1 STRESS PERIOD     1
      4 TOTAL ITERATIONS
     1 CALLS TO GCG PACKAGE FOR TRANSPORT TIME STEP    57 IN FLOW TIME STEP     1 STRESS PERIOD     1
      4 TOTAL ITERATIONS
     1 CALLS TO GCG PACKAGE FOR TRANSPORT TIME STEP    58 IN FLOW TIME STEP     1 STRESS PERIOD     1
      4 TOTAL ITERATIONS
     1 CALLS TO GCG PACKAGE FOR TRANSPORT TIME STEP    59 IN FLOW TIME STEP     1 STRESS PERIOD     1
      4 TOTAL ITERATIONS
     1 CALLS TO GCG PACKAGE FOR TRANSPORT TIME STEP    60 IN FLOW TIME STEP     1 STRESS PERIOD     1
      4 TOTAL ITERATIONS
     1 CALLS TO GCG PACKAGE FOR TRANSPORT TIME STEP    61 IN FLOW TIME STEP     1 STRESS PERIOD     1
      4 TOTAL ITERATIONS
     1 CALLS TO GCG PACKAGE FOR TRANSPORT TIME STEP    62 IN FLOW TIME STEP     1 STRESS PERIOD     1
      4 TOTAL ITERATIONS
     1 CALLS TO GCG PACKAGE FOR TRANSPORT TIME STEP    63 IN FLOW TIME STEP     1 STRESS PERIOD     1
      4 TOTAL ITERATIONS
     1 CALLS TO GCG PACKAGE FOR TRANSPORT TIME STEP    64 IN FLOW TIME STEP     1 STRESS PERIOD     1
      4 TOTAL ITERATIONS
     1 CALLS TO GCG PACKAGE FOR TRANSPORT TIME STEP    65 IN FLOW TIME STEP     1 STRESS PERIOD     1
      4 TOTAL ITERATIONS
     1 CALLS TO GCG PACKAGE FOR TRANSPORT TIME STEP    66 IN FLOW TIME STEP     1 STRESS PERIOD     1
      4 TOTAL ITERATIONS
     1 CALLS TO GCG PACKAGE FOR TRANSPORT TIME STEP    67 IN FLOW TIME STEP     1 STRESS PERIOD     1
      4 TOTAL ITERATIONS
     1 CALLS TO GCG PACKAGE FOR TRANSPORT TIME STEP    68 IN FLOW TIME STEP     1 STRESS PERIOD     1
      4 TOTAL ITERATIONS
     1 CALLS TO GCG PACKAGE FOR TRANSPORT TIME STEP    69 IN FLOW TIME STEP     1 STRESS PERIOD     1
      4 TOTAL ITERATIONS
     1 CALLS TO GCG PACKAGE FOR TRANSPORT TIME STEP    70 IN FLOW TIME STEP     1 STRESS PERIOD     1
      4 TOTAL ITERATIONS
     1 CALLS TO GCG PACKAGE FOR TRANSPORT TIME STEP    71 IN FLOW TIME STEP     1 STRESS PERIOD     1
      4 TOTAL ITERATIONS
     1 CALLS TO GCG PACKAGE FOR TRANSPORT TIME STEP    72 IN FLOW TIME STEP     1 STRESS PERIOD     1
      4 TOTAL ITERATIONS
     1 CALLS TO GCG PACKAGE FOR TRANSPORT TIME STEP    73 IN FLOW TIME STEP     1 STRESS PERIOD     1
      4 TOTAL ITERATIONS
     1 CALLS TO GCG PACKAGE FOR TRANSPORT TIME STEP    74 IN FLOW TIME STEP     1 STRESS PERIOD     1
      4 TOTAL ITERATIONS
     1 CALLS TO GCG PACKAGE FOR TRANSPORT TIME STEP    75 IN FLOW TIME STEP     1 STRESS PERIOD     1
      4 TOTAL ITERATIONS
     1 CALLS TO GCG PACKAGE FOR TRANSPORT TIME STEP    76 IN FLOW TIME STEP     1 STRESS PERIOD     1
      4 TOTAL ITERATIONS
     1 CALLS TO GCG PACKAGE FOR TRANSPORT TIME STEP    77 IN FLOW TIME STEP     1 STRESS PERIOD     1
      4 TOTAL ITERATIONS
     1 CALLS TO GCG PACKAGE FOR TRANSPORT TIME STEP    78 IN FLOW TIME STEP     1 STRESS PERIOD     1
      4 TOTAL ITERATIONS
     1 CALLS TO GCG PACKAGE FOR TRANSPORT TIME STEP    79 IN FLOW TIME STEP     1 STRESS PERIOD     1
      4 TOTAL ITERATIONS
     1 CALLS TO GCG PACKAGE FOR TRANSPORT TIME STEP    80 IN FLOW TIME STEP     1 STRESS PERIOD     1
      4 TOTAL ITERATIONS
     1 CALLS TO GCG PACKAGE FOR TRANSPORT TIME STEP    81 IN FLOW TIME STEP     1 STRESS PERIOD     1
      4 TOTAL ITERATIONS
     1 CALLS TO GCG PACKAGE FOR TRANSPORT TIME STEP    82 IN FLOW TIME STEP     1 STRESS PERIOD     1
      4 TOTAL ITERATIONS
     1 CALLS TO GCG PACKAGE FOR TRANSPORT TIME STEP    83 IN FLOW TIME STEP     1 STRESS PERIOD     1
      4 TOTAL ITERATIONS
     1 CALLS TO GCG PACKAGE FOR TRANSPORT TIME STEP    84 IN FLOW TIME STEP     1 STRESS PERIOD     1
      4 TOTAL ITERATIONS
     1 CALLS TO GCG PACKAGE FOR TRANSPORT TIME STEP    85 IN FLOW TIME STEP     1 STRESS PERIOD     1
      4 TOTAL ITERATIONS
     1 CALLS TO GCG PACKAGE FOR TRANSPORT TIME STEP    86 IN FLOW TIME STEP     1 STRESS PERIOD     1
      4 TOTAL ITERATIONS
     1 CALLS TO GCG PACKAGE FOR TRANSPORT TIME STEP    87 IN FLOW TIME STEP     1 STRESS PERIOD     1
      4 TOTAL ITERATIONS
     1 CALLS TO GCG PACKAGE FOR TRANSPORT TIME STEP    88 IN FLOW TIME STEP     1 STRESS PERIOD     1
      4 TOTAL ITERATIONS
     1 CALLS TO GCG PACKAGE FOR TRANSPORT TIME STEP    89 IN FLOW TIME STEP     1 STRESS PERIOD     1
      4 TOTAL ITERATIONS
     1 CALLS TO GCG PACKAGE FOR TRANSPORT TIME STEP    90 IN FLOW TIME STEP     1 STRESS PERIOD     1
      4 TOTAL ITERATIONS
     1 CALLS TO GCG PACKAGE FOR TRANSPORT TIME STEP    91 IN FLOW TIME STEP     1 STRESS PERIOD     1
      4 TOTAL ITERATIONS
     1 CALLS TO GCG PACKAGE FOR TRANSPORT TIME STEP    92 IN FLOW TIME STEP     1 STRESS PERIOD     1
      4 TOTAL ITERATIONS
     1 CALLS TO GCG PACKAGE FOR TRANSPORT TIME STEP    93 IN FLOW TIME STEP     1 STRESS PERIOD     1
      3 TOTAL ITERATIONS



 >>>>>>>>>>>>>>>>>>>>>>>>>>>>>>>>>>>>>>>>>>>>>>>>>>>>>>>FOR COMPONENT NO. 01<<<<<<<<<<<<<<<<<<<<<<<<<<<<<<<<<<<<<<<<<<<<<<<<<<<<<<<


                                            -------------------------------------------
                                                      TRANSPORT STEP NO.   93
                                            -------------------------------------------

 TOTAL ELAPSED TIME SINCE BEGINNING OF SIMULATION =   1.640000    D   
 .....................................................................

                     CUMULATIVE MASS BUDGETS AT END OF TRANSPORT STEP   93, TIME STEP    1, STRESS PERIOD    1
                     -----------------------------------------------------------------------------------------

                                                             IN                           OUT
                                                      ----------------             ----------------
                               CONSTANT CONCENTRATION:    0.000000                    0.000000    
                                        CONSTANT HEAD:    0.000000                  -0.9072084E-29
                                                WELLS:   0.1012116E-02                0.000000    
                               MASS STOR (FLOW MODEL):    0.000000                    0.000000    
                                MASS STORAGE (SOLUTE):   0.5318357E-08              -0.1012121E-02
                            ---------------------------------------------------------------------------
                                              [TOTAL]:   0.1012121E-02 KG           -0.1012121E-02 KG  

                                                          NET (IN - OUT):  -0.3492460E-09
                                                   DISCREPANCY (PERCENT):  -0.3450634E-04
     1 CALLS TO GCG PACKAGE FOR TRANSPORT TIME STEP    94 IN FLOW TIME STEP     1 STRESS PERIOD     1
      4 TOTAL ITERATIONS
     1 CALLS TO GCG PACKAGE FOR TRANSPORT TIME STEP    95 IN FLOW TIME STEP     1 STRESS PERIOD     1
      4 TOTAL ITERATIONS
     1 CALLS TO GCG PACKAGE FOR TRANSPORT TIME STEP    96 IN FLOW TIME STEP     1 STRESS PERIOD     1
      4 TOTAL ITERATIONS
     1 CALLS TO GCG PACKAGE FOR TRANSPORT TIME STEP    97 IN FLOW TIME STEP     1 STRESS PERIOD     1
      4 TOTAL ITERATIONS
     1 CALLS TO GCG PACKAGE FOR TRANSPORT TIME STEP    98 IN FLOW TIME STEP     1 STRESS PERIOD     1
      4 TOTAL ITERATIONS
     1 CALLS TO GCG PACKAGE FOR TRANSPORT TIME STEP    99 IN FLOW TIME STEP     1 STRESS PERIOD     1
      4 TOTAL ITERATIONS
     1 CALLS TO GCG PACKAGE FOR TRANSPORT TIME STEP   100 IN FLOW TIME STEP     1 STRESS PERIOD     1
      4 TOTAL ITERATIONS
     1 CALLS TO GCG PACKAGE FOR TRANSPORT TIME STEP   101 IN FLOW TIME STEP     1 STRESS PERIOD     1
      4 TOTAL ITERATIONS
     1 CALLS TO GCG PACKAGE FOR TRANSPORT TIME STEP   102 IN FLOW TIME STEP     1 STRESS PERIOD     1
      4 TOTAL ITERATIONS
     1 CALLS TO GCG PACKAGE FOR TRANSPORT TIME STEP   103 IN FLOW TIME STEP     1 STRESS PERIOD     1
      4 TOTAL ITERATIONS
     1 CALLS TO GCG PACKAGE FOR TRANSPORT TIME STEP   104 IN FLOW TIME STEP     1 STRESS PERIOD     1
      4 TOTAL ITERATIONS
     1 CALLS TO GCG PACKAGE FOR TRANSPORT TIME STEP   105 IN FLOW TIME STEP     1 STRESS PERIOD     1
      4 TOTAL ITERATIONS
     1 CALLS TO GCG PACKAGE FOR TRANSPORT TIME STEP   106 IN FLOW TIME STEP     1 STRESS PERIOD     1
      4 TOTAL ITERATIONS
     1 CALLS TO GCG PACKAGE FOR TRANSPORT TIME STEP   107 IN FLOW TIME STEP     1 STRESS PERIOD     1
      4 TOTAL ITERATIONS
     1 CALLS TO GCG PACKAGE FOR TRANSPORT TIME STEP   108 IN FLOW TIME STEP     1 STRESS PERIOD     1
      4 TOTAL ITERATIONS
     1 CALLS TO GCG PACKAGE FOR TRANSPORT TIME STEP   109 IN FLOW TIME STEP     1 STRESS PERIOD     1
      4 TOTAL ITERATIONS
     1 CALLS TO GCG PACKAGE FOR TRANSPORT TIME STEP   110 IN FLOW TIME STEP     1 STRESS PERIOD     1
      4 TOTAL ITERATIONS
     1 CALLS TO GCG PACKAGE FOR TRANSPORT TIME STEP   111 IN FLOW TIME STEP     1 STRESS PERIOD     1
      4 TOTAL ITERATIONS
     1 CALLS TO GCG PACKAGE FOR TRANSPORT TIME STEP   112 IN FLOW TIME STEP     1 STRESS PERIOD     1
      4 TOTAL ITERATIONS
     1 CALLS TO GCG PACKAGE FOR TRANSPORT TIME STEP   113 IN FLOW TIME STEP     1 STRESS PERIOD     1
      4 TOTAL ITERATIONS
     1 CALLS TO GCG PACKAGE FOR TRANSPORT TIME STEP   114 IN FLOW TIME STEP     1 STRESS PERIOD     1
      4 TOTAL ITERATIONS
     1 CALLS TO GCG PACKAGE FOR TRANSPORT TIME STEP   115 IN FLOW TIME STEP     1 STRESS PERIOD     1
      4 TOTAL ITERATIONS
     1 CALLS TO GCG PACKAGE FOR TRANSPORT TIME STEP   116 IN FLOW TIME STEP     1 STRESS PERIOD     1
      4 TOTAL ITERATIONS
     1 CALLS TO GCG PACKAGE FOR TRANSPORT TIME STEP   117 IN FLOW TIME STEP     1 STRESS PERIOD     1
      4 TOTAL ITERATIONS
     1 CALLS TO GCG PACKAGE FOR TRANSPORT TIME STEP   118 IN FLOW TIME STEP     1 STRESS PERIOD     1
      4 TOTAL ITERATIONS
     1 CALLS TO GCG PACKAGE FOR TRANSPORT TIME STEP   119 IN FLOW TIME STEP     1 STRESS PERIOD     1
      4 TOTAL ITERATIONS
     1 CALLS TO GCG PACKAGE FOR TRANSPORT TIME STEP   120 IN FLOW TIME STEP     1 STRESS PERIOD     1
      4 TOTAL ITERATIONS
     1 CALLS TO GCG PACKAGE FOR TRANSPORT TIME STEP   121 IN FLOW TIME STEP     1 STRESS PERIOD     1
      4 TOTAL ITERATIONS
     1 CALLS TO GCG PACKAGE FOR TRANSPORT TIME STEP   122 IN FLOW TIME STEP     1 STRESS PERIOD     1
      4 TOTAL ITERATIONS
     1 CALLS TO GCG PACKAGE FOR TRANSPORT TIME STEP   123 IN FLOW TIME STEP     1 STRESS PERIOD     1
      4 TOTAL ITERATIONS
     1 CALLS TO GCG PACKAGE FOR TRANSPORT TIME STEP   124 IN FLOW TIME STEP     1 STRESS PERIOD     1
      4 TOTAL ITERATIONS
     1 CALLS TO GCG PACKAGE FOR TRANSPORT TIME STEP   125 IN FLOW TIME STEP     1 STRESS PERIOD     1
      4 TOTAL ITERATIONS
     1 CALLS TO GCG PACKAGE FOR TRANSPORT TIME STEP   126 IN FLOW TIME STEP     1 STRESS PERIOD     1
      4 TOTAL ITERATIONS
     1 CALLS TO GCG PACKAGE FOR TRANSPORT TIME STEP   127 IN FLOW TIME STEP     1 STRESS PERIOD     1
      4 TOTAL ITERATIONS
     1 CALLS TO GCG PACKAGE FOR TRANSPORT TIME STEP   128 IN FLOW TIME STEP     1 STRESS PERIOD     1
      4 TOTAL ITERATIONS
     1 CALLS TO GCG PACKAGE FOR TRANSPORT TIME STEP   129 IN FLOW TIME STEP     1 STRESS PERIOD     1
      4 TOTAL ITERATIONS
     1 CALLS TO GCG PACKAGE FOR TRANSPORT TIME STEP   130 IN FLOW TIME STEP     1 STRESS PERIOD     1
      4 TOTAL ITERATIONS
     1 CALLS TO GCG PACKAGE FOR TRANSPORT TIME STEP   131 IN FLOW TIME STEP     1 STRESS PERIOD     1
      4 TOTAL ITERATIONS
     1 CALLS TO GCG PACKAGE FOR TRANSPORT TIME STEP   132 IN FLOW TIME STEP     1 STRESS PERIOD     1
      4 TOTAL ITERATIONS
     1 CALLS TO GCG PACKAGE FOR TRANSPORT TIME STEP   133 IN FLOW TIME STEP     1 STRESS PERIOD     1
      4 TOTAL ITERATIONS
     1 CALLS TO GCG PACKAGE FOR TRANSPORT TIME STEP   134 IN FLOW TIME STEP     1 STRESS PERIOD     1
      4 TOTAL ITERATIONS
     1 CALLS TO GCG PACKAGE FOR TRANSPORT TIME STEP   135 IN FLOW TIME STEP     1 STRESS PERIOD     1
      4 TOTAL ITERATIONS
     1 CALLS TO GCG PACKAGE FOR TRANSPORT TIME STEP   136 IN FLOW TIME STEP     1 STRESS PERIOD     1
      4 TOTAL ITERATIONS
     1 CALLS TO GCG PACKAGE FOR TRANSPORT TIME STEP   137 IN FLOW TIME STEP     1 STRESS PERIOD     1
      4 TOTAL ITERATIONS
     1 CALLS TO GCG PACKAGE FOR TRANSPORT TIME STEP   138 IN FLOW TIME STEP     1 STRESS PERIOD     1
      4 TOTAL ITERATIONS
     1 CALLS TO GCG PACKAGE FOR TRANSPORT TIME STEP   139 IN FLOW TIME STEP     1 STRESS PERIOD     1
      3 TOTAL ITERATIONS



 >>>>>>>>>>>>>>>>>>>>>>>>>>>>>>>>>>>>>>>>>>>>>>>>>>>>>>>FOR COMPONENT NO. 01<<<<<<<<<<<<<<<<<<<<<<<<<<<<<<<<<<<<<<<<<<<<<<<<<<<<<<<


                                            -------------------------------------------
                                                      TRANSPORT STEP NO.  139
                                            -------------------------------------------

 TOTAL ELAPSED TIME SINCE BEGINNING OF SIMULATION =   2.460000    D   
 .....................................................................

                     CUMULATIVE MASS BUDGETS AT END OF TRANSPORT STEP  139, TIME STEP    1, STRESS PERIOD    1
                     -----------------------------------------------------------------------------------------

                                                             IN                           OUT
                                                      ----------------             ----------------
                               CONSTANT CONCENTRATION:    0.000000                    0.000000    
                                        CONSTANT HEAD:    0.000000                  -0.2188461E-18
                                                WELLS:   0.1518175E-02                0.000000    
                               MASS STOR (FLOW MODEL):    0.000000                    0.000000    
                                MASS STORAGE (SOLUTE):   0.1168850E-07              -0.1518187E-02
                            ---------------------------------------------------------------------------
                                              [TOTAL]:   0.1518186E-02 KG           -0.1518187E-02 KG  

                                                          NET (IN - OUT):  -0.4656613E-09
                                                   DISCREPANCY (PERCENT):  -0.3067220E-04
     1 CALLS TO GCG PACKAGE FOR TRANSPORT TIME STEP   140 IN FLOW TIME STEP     1 STRESS PERIOD     1
      4 TOTAL ITERATIONS
     1 CALLS TO GCG PACKAGE FOR TRANSPORT TIME STEP   141 IN FLOW TIME STEP     1 STRESS PERIOD     1
      4 TOTAL ITERATIONS
     1 CALLS TO GCG PACKAGE FOR TRANSPORT TIME STEP   142 IN FLOW TIME STEP     1 STRESS PERIOD     1
      4 TOTAL ITERATIONS
     1 CALLS TO GCG PACKAGE FOR TRANSPORT TIME STEP   143 IN FLOW TIME STEP     1 STRESS PERIOD     1
      4 TOTAL ITERATIONS
     1 CALLS TO GCG PACKAGE FOR TRANSPORT TIME STEP   144 IN FLOW TIME STEP     1 STRESS PERIOD     1
      4 TOTAL ITERATIONS
     1 CALLS TO GCG PACKAGE FOR TRANSPORT TIME STEP   145 IN FLOW TIME STEP     1 STRESS PERIOD     1
      4 TOTAL ITERATIONS
     1 CALLS TO GCG PACKAGE FOR TRANSPORT TIME STEP   146 IN FLOW TIME STEP     1 STRESS PERIOD     1
      4 TOTAL ITERATIONS
     1 CALLS TO GCG PACKAGE FOR TRANSPORT TIME STEP   147 IN FLOW TIME STEP     1 STRESS PERIOD     1
      4 TOTAL ITERATIONS
     1 CALLS TO GCG PACKAGE FOR TRANSPORT TIME STEP   148 IN FLOW TIME STEP     1 STRESS PERIOD     1
      4 TOTAL ITERATIONS
     1 CALLS TO GCG PACKAGE FOR TRANSPORT TIME STEP   149 IN FLOW TIME STEP     1 STRESS PERIOD     1
      4 TOTAL ITERATIONS
     1 CALLS TO GCG PACKAGE FOR TRANSPORT TIME STEP   150 IN FLOW TIME STEP     1 STRESS PERIOD     1
      4 TOTAL ITERATIONS
     1 CALLS TO GCG PACKAGE FOR TRANSPORT TIME STEP   151 IN FLOW TIME STEP     1 STRESS PERIOD     1
      4 TOTAL ITERATIONS
     1 CALLS TO GCG PACKAGE FOR TRANSPORT TIME STEP   152 IN FLOW TIME STEP     1 STRESS PERIOD     1
      4 TOTAL ITERATIONS
     1 CALLS TO GCG PACKAGE FOR TRANSPORT TIME STEP   153 IN FLOW TIME STEP     1 STRESS PERIOD     1
      4 TOTAL ITERATIONS
     1 CALLS TO GCG PACKAGE FOR TRANSPORT TIME STEP   154 IN FLOW TIME STEP     1 STRESS PERIOD     1
      4 TOTAL ITERATIONS
     1 CALLS TO GCG PACKAGE FOR TRANSPORT TIME STEP   155 IN FLOW TIME STEP     1 STRESS PERIOD     1
      4 TOTAL ITERATIONS
     1 CALLS TO GCG PACKAGE FOR TRANSPORT TIME STEP   156 IN FLOW TIME STEP     1 STRESS PERIOD     1
      4 TOTAL ITERATIONS
     1 CALLS TO GCG PACKAGE FOR TRANSPORT TIME STEP   157 IN FLOW TIME STEP     1 STRESS PERIOD     1
      4 TOTAL ITERATIONS
     1 CALLS TO GCG PACKAGE FOR TRANSPORT TIME STEP   158 IN FLOW TIME STEP     1 STRESS PERIOD     1
      4 TOTAL ITERATIONS
     1 CALLS TO GCG PACKAGE FOR TRANSPORT TIME STEP   159 IN FLOW TIME STEP     1 STRESS PERIOD     1
      4 TOTAL ITERATIONS
     1 CALLS TO GCG PACKAGE FOR TRANSPORT TIME STEP   160 IN FLOW TIME STEP     1 STRESS PERIOD     1
      4 TOTAL ITERATIONS
     1 CALLS TO GCG PACKAGE FOR TRANSPORT TIME STEP   161 IN FLOW TIME STEP     1 STRESS PERIOD     1
      4 TOTAL ITERATIONS
     1 CALLS TO GCG PACKAGE FOR TRANSPORT TIME STEP   162 IN FLOW TIME STEP     1 STRESS PERIOD     1
      4 TOTAL ITERATIONS
     1 CALLS TO GCG PACKAGE FOR TRANSPORT TIME STEP   163 IN FLOW TIME STEP     1 STRESS PERIOD     1
      4 TOTAL ITERATIONS
     1 CALLS TO GCG PACKAGE FOR TRANSPORT TIME STEP   164 IN FLOW TIME STEP     1 STRESS PERIOD     1
      4 TOTAL ITERATIONS
     1 CALLS TO GCG PACKAGE FOR TRANSPORT TIME STEP   165 IN FLOW TIME STEP     1 STRESS PERIOD     1
      4 TOTAL ITERATIONS
     1 CALLS TO GCG PACKAGE FOR TRANSPORT TIME STEP   166 IN FLOW TIME STEP     1 STRESS PERIOD     1
      4 TOTAL ITERATIONS
     1 CALLS TO GCG PACKAGE FOR TRANSPORT TIME STEP   167 IN FLOW TIME STEP     1 STRESS PERIOD     1
      4 TOTAL ITERATIONS
     1 CALLS TO GCG PACKAGE FOR TRANSPORT TIME STEP   168 IN FLOW TIME STEP     1 STRESS PERIOD     1
      4 TOTAL ITERATIONS
     1 CALLS TO GCG PACKAGE FOR TRANSPORT TIME STEP   169 IN FLOW TIME STEP     1 STRESS PERIOD     1
      4 TOTAL ITERATIONS
     1 CALLS TO GCG PACKAGE FOR TRANSPORT TIME STEP   170 IN FLOW TIME STEP     1 STRESS PERIOD     1
      4 TOTAL ITERATIONS
     1 CALLS TO GCG PACKAGE FOR TRANSPORT TIME STEP   171 IN FLOW TIME STEP     1 STRESS PERIOD     1
      4 TOTAL ITERATIONS
     1 CALLS TO GCG PACKAGE FOR TRANSPORT TIME STEP   172 IN FLOW TIME STEP     1 STRESS PERIOD     1
      4 TOTAL ITERATIONS
     1 CALLS TO GCG PACKAGE FOR TRANSPORT TIME STEP   173 IN FLOW TIME STEP     1 STRESS PERIOD     1
      4 TOTAL ITERATIONS
     1 CALLS TO GCG PACKAGE FOR TRANSPORT TIME STEP   174 IN FLOW TIME STEP     1 STRESS PERIOD     1
      4 TOTAL ITERATIONS
     1 CALLS TO GCG PACKAGE FOR TRANSPORT TIME STEP   175 IN FLOW TIME STEP     1 STRESS PERIOD     1
      4 TOTAL ITERATIONS
     1 CALLS TO GCG PACKAGE FOR TRANSPORT TIME STEP   176 IN FLOW TIME STEP     1 STRESS PERIOD     1
      4 TOTAL ITERATIONS
     1 CALLS TO GCG PACKAGE FOR TRANSPORT TIME STEP   177 IN FLOW TIME STEP     1 STRESS PERIOD     1
      4 TOTAL ITERATIONS
     1 CALLS TO GCG PACKAGE FOR TRANSPORT TIME STEP   178 IN FLOW TIME STEP     1 STRESS PERIOD     1
      4 TOTAL ITERATIONS
     1 CALLS TO GCG PACKAGE FOR TRANSPORT TIME STEP   179 IN FLOW TIME STEP     1 STRESS PERIOD     1
      4 TOTAL ITERATIONS
     1 CALLS TO GCG PACKAGE FOR TRANSPORT TIME STEP   180 IN FLOW TIME STEP     1 STRESS PERIOD     1
      4 TOTAL ITERATIONS
     1 CALLS TO GCG PACKAGE FOR TRANSPORT TIME STEP   181 IN FLOW TIME STEP     1 STRESS PERIOD     1
      4 TOTAL ITERATIONS
     1 CALLS TO GCG PACKAGE FOR TRANSPORT TIME STEP   182 IN FLOW TIME STEP     1 STRESS PERIOD     1
      4 TOTAL ITERATIONS
     1 CALLS TO GCG PACKAGE FOR TRANSPORT TIME STEP   183 IN FLOW TIME STEP     1 STRESS PERIOD     1
      4 TOTAL ITERATIONS
     1 CALLS TO GCG PACKAGE FOR TRANSPORT TIME STEP   184 IN FLOW TIME STEP     1 STRESS PERIOD     1
      4 TOTAL ITERATIONS
     1 CALLS TO GCG PACKAGE FOR TRANSPORT TIME STEP   185 IN FLOW TIME STEP     1 STRESS PERIOD     1
      3 TOTAL ITERATIONS



 >>>>>>>>>>>>>>>>>>>>>>>>>>>>>>>>>>>>>>>>>>>>>>>>>>>>>>>FOR COMPONENT NO. 01<<<<<<<<<<<<<<<<<<<<<<<<<<<<<<<<<<<<<<<<<<<<<<<<<<<<<<<


                                            -------------------------------------------
                                                      TRANSPORT STEP NO.  185
                                            -------------------------------------------

 TOTAL ELAPSED TIME SINCE BEGINNING OF SIMULATION =   3.280000    D   
 .....................................................................

                     CUMULATIVE MASS BUDGETS AT END OF TRANSPORT STEP  185, TIME STEP    1, STRESS PERIOD    1
                     -----------------------------------------------------------------------------------------

                                                             IN                           OUT
                                                      ----------------             ----------------
                               CONSTANT CONCENTRATION:    0.000000                    0.000000    
                                        CONSTANT HEAD:    0.000000                  -0.2991341E-12
                                                WELLS:   0.2024234E-02                0.000000    
                               MASS STOR (FLOW MODEL):    0.000000                    0.000000    
                                MASS STORAGE (SOLUTE):   0.2421842E-07              -0.2024260E-02
                            ---------------------------------------------------------------------------
                                              [TOTAL]:   0.2024258E-02 KG           -0.2024260E-02 KG  

                                                          NET (IN - OUT):  -0.1629815E-08
                                                   DISCREPANCY (PERCENT):  -0.8051413E-04
     1 CALLS TO GCG PACKAGE FOR TRANSPORT TIME STEP   186 IN FLOW TIME STEP     1 STRESS PERIOD     1
      4 TOTAL ITERATIONS
     1 CALLS TO GCG PACKAGE FOR TRANSPORT TIME STEP   187 IN FLOW TIME STEP     1 STRESS PERIOD     1
      4 TOTAL ITERATIONS
     1 CALLS TO GCG PACKAGE FOR TRANSPORT TIME STEP   188 IN FLOW TIME STEP     1 STRESS PERIOD     1
      4 TOTAL ITERATIONS
     1 CALLS TO GCG PACKAGE FOR TRANSPORT TIME STEP   189 IN FLOW TIME STEP     1 STRESS PERIOD     1
      4 TOTAL ITERATIONS
     1 CALLS TO GCG PACKAGE FOR TRANSPORT TIME STEP   190 IN FLOW TIME STEP     1 STRESS PERIOD     1
      4 TOTAL ITERATIONS
     1 CALLS TO GCG PACKAGE FOR TRANSPORT TIME STEP   191 IN FLOW TIME STEP     1 STRESS PERIOD     1
      4 TOTAL ITERATIONS
     1 CALLS TO GCG PACKAGE FOR TRANSPORT TIME STEP   192 IN FLOW TIME STEP     1 STRESS PERIOD     1
      4 TOTAL ITERATIONS
     1 CALLS TO GCG PACKAGE FOR TRANSPORT TIME STEP   193 IN FLOW TIME STEP     1 STRESS PERIOD     1
      4 TOTAL ITERATIONS
     1 CALLS TO GCG PACKAGE FOR TRANSPORT TIME STEP   194 IN FLOW TIME STEP     1 STRESS PERIOD     1
      4 TOTAL ITERATIONS
     1 CALLS TO GCG PACKAGE FOR TRANSPORT TIME STEP   195 IN FLOW TIME STEP     1 STRESS PERIOD     1
      4 TOTAL ITERATIONS
     1 CALLS TO GCG PACKAGE FOR TRANSPORT TIME STEP   196 IN FLOW TIME STEP     1 STRESS PERIOD     1
      4 TOTAL ITERATIONS
     1 CALLS TO GCG PACKAGE FOR TRANSPORT TIME STEP   197 IN FLOW TIME STEP     1 STRESS PERIOD     1
      4 TOTAL ITERATIONS
     1 CALLS TO GCG PACKAGE FOR TRANSPORT TIME STEP   198 IN FLOW TIME STEP     1 STRESS PERIOD     1
      4 TOTAL ITERATIONS
     1 CALLS TO GCG PACKAGE FOR TRANSPORT TIME STEP   199 IN FLOW TIME STEP     1 STRESS PERIOD     1
      4 TOTAL ITERATIONS
     1 CALLS TO GCG PACKAGE FOR TRANSPORT TIME STEP   200 IN FLOW TIME STEP     1 STRESS PERIOD     1
      4 TOTAL ITERATIONS
     1 CALLS TO GCG PACKAGE FOR TRANSPORT TIME STEP   201 IN FLOW TIME STEP     1 STRESS PERIOD     1
      4 TOTAL ITERATIONS
     1 CALLS TO GCG PACKAGE FOR TRANSPORT TIME STEP   202 IN FLOW TIME STEP     1 STRESS PERIOD     1
      4 TOTAL ITERATIONS
     1 CALLS TO GCG PACKAGE FOR TRANSPORT TIME STEP   203 IN FLOW TIME STEP     1 STRESS PERIOD     1
      4 TOTAL ITERATIONS
     1 CALLS TO GCG PACKAGE FOR TRANSPORT TIME STEP   204 IN FLOW TIME STEP     1 STRESS PERIOD     1
      4 TOTAL ITERATIONS
     1 CALLS TO GCG PACKAGE FOR TRANSPORT TIME STEP   205 IN FLOW TIME STEP     1 STRESS PERIOD     1
      4 TOTAL ITERATIONS
     1 CALLS TO GCG PACKAGE FOR TRANSPORT TIME STEP   206 IN FLOW TIME STEP     1 STRESS PERIOD     1
      4 TOTAL ITERATIONS
     1 CALLS TO GCG PACKAGE FOR TRANSPORT TIME STEP   207 IN FLOW TIME STEP     1 STRESS PERIOD     1
      4 TOTAL ITERATIONS
     1 CALLS TO GCG PACKAGE FOR TRANSPORT TIME STEP   208 IN FLOW TIME STEP     1 STRESS PERIOD     1
      4 TOTAL ITERATIONS
     1 CALLS TO GCG PACKAGE FOR TRANSPORT TIME STEP   209 IN FLOW TIME STEP     1 STRESS PERIOD     1
      4 TOTAL ITERATIONS
     1 CALLS TO GCG PACKAGE FOR TRANSPORT TIME STEP   210 IN FLOW TIME STEP     1 STRESS PERIOD     1
      4 TOTAL ITERATIONS
     1 CALLS TO GCG PACKAGE FOR TRANSPORT TIME STEP   211 IN FLOW TIME STEP     1 STRESS PERIOD     1
      4 TOTAL ITERATIONS
     1 CALLS TO GCG PACKAGE FOR TRANSPORT TIME STEP   212 IN FLOW TIME STEP     1 STRESS PERIOD     1
      4 TOTAL ITERATIONS
     1 CALLS TO GCG PACKAGE FOR TRANSPORT TIME STEP   213 IN FLOW TIME STEP     1 STRESS PERIOD     1
      4 TOTAL ITERATIONS
     1 CALLS TO GCG PACKAGE FOR TRANSPORT TIME STEP   214 IN FLOW TIME STEP     1 STRESS PERIOD     1
      4 TOTAL ITERATIONS
     1 CALLS TO GCG PACKAGE FOR TRANSPORT TIME STEP   215 IN FLOW TIME STEP     1 STRESS PERIOD     1
      4 TOTAL ITERATIONS
     1 CALLS TO GCG PACKAGE FOR TRANSPORT TIME STEP   216 IN FLOW TIME STEP     1 STRESS PERIOD     1
      4 TOTAL ITERATIONS
     1 CALLS TO GCG PACKAGE FOR TRANSPORT TIME STEP   217 IN FLOW TIME STEP     1 STRESS PERIOD     1
      4 TOTAL ITERATIONS
     1 CALLS TO GCG PACKAGE FOR TRANSPORT TIME STEP   218 IN FLOW TIME STEP     1 STRESS PERIOD     1
      4 TOTAL ITERATIONS
     1 CALLS TO GCG PACKAGE FOR TRANSPORT TIME STEP   219 IN FLOW TIME STEP     1 STRESS PERIOD     1
      4 TOTAL ITERATIONS
     1 CALLS TO GCG PACKAGE FOR TRANSPORT TIME STEP   220 IN FLOW TIME STEP     1 STRESS PERIOD     1
      4 TOTAL ITERATIONS
     1 CALLS TO GCG PACKAGE FOR TRANSPORT TIME STEP   221 IN FLOW TIME STEP     1 STRESS PERIOD     1
      4 TOTAL ITERATIONS
     1 CALLS TO GCG PACKAGE FOR TRANSPORT TIME STEP   222 IN FLOW TIME STEP     1 STRESS PERIOD     1
      4 TOTAL ITERATIONS
     1 CALLS TO GCG PACKAGE FOR TRANSPORT TIME STEP   223 IN FLOW TIME STEP     1 STRESS PERIOD     1
      4 TOTAL ITERATIONS
     1 CALLS TO GCG PACKAGE FOR TRANSPORT TIME STEP   224 IN FLOW TIME STEP     1 STRESS PERIOD     1
      4 TOTAL ITERATIONS
     1 CALLS TO GCG PACKAGE FOR TRANSPORT TIME STEP   225 IN FLOW TIME STEP     1 STRESS PERIOD     1
      4 TOTAL ITERATIONS
     1 CALLS TO GCG PACKAGE FOR TRANSPORT TIME STEP   226 IN FLOW TIME STEP     1 STRESS PERIOD     1
      4 TOTAL ITERATIONS
     1 CALLS TO GCG PACKAGE FOR TRANSPORT TIME STEP   227 IN FLOW TIME STEP     1 STRESS PERIOD     1
      4 TOTAL ITERATIONS
     1 CALLS TO GCG PACKAGE FOR TRANSPORT TIME STEP   228 IN FLOW TIME STEP     1 STRESS PERIOD     1
      4 TOTAL ITERATIONS
     1 CALLS TO GCG PACKAGE FOR TRANSPORT TIME STEP   229 IN FLOW TIME STEP     1 STRESS PERIOD     1
      4 TOTAL ITERATIONS
     1 CALLS TO GCG PACKAGE FOR TRANSPORT TIME STEP   230 IN FLOW TIME STEP     1 STRESS PERIOD     1
      4 TOTAL ITERATIONS
     1 CALLS TO GCG PACKAGE FOR TRANSPORT TIME STEP   231 IN FLOW TIME STEP     1 STRESS PERIOD     1
      3 TOTAL ITERATIONS



 >>>>>>>>>>>>>>>>>>>>>>>>>>>>>>>>>>>>>>>>>>>>>>>>>>>>>>>FOR COMPONENT NO. 01<<<<<<<<<<<<<<<<<<<<<<<<<<<<<<<<<<<<<<<<<<<<<<<<<<<<<<<


                                            -------------------------------------------
                                                      TRANSPORT STEP NO.  231
                                            -------------------------------------------

 TOTAL ELAPSED TIME SINCE BEGINNING OF SIMULATION =   4.100000    D   
 .....................................................................

                     CUMULATIVE MASS BUDGETS AT END OF TRANSPORT STEP  231, TIME STEP    1, STRESS PERIOD    1
                     -----------------------------------------------------------------------------------------

                                                             IN                           OUT
                                                      ----------------             ----------------
                               CONSTANT CONCENTRATION:    0.000000                    0.000000    
                                        CONSTANT HEAD:    0.000000                  -0.1476486E-08
                                                WELLS:   0.2530292E-02                0.000000    
                               MASS STOR (FLOW MODEL):    0.000000                    0.000000    
                                MASS STORAGE (SOLUTE):   0.4416247E-07              -0.2530339E-02
                            ---------------------------------------------------------------------------
                                              [TOTAL]:   0.2530336E-02 KG           -0.2530340E-02 KG  

                                                          NET (IN - OUT):  -0.3725290E-08
                                                   DISCREPANCY (PERCENT):  -0.1472250E-03
     1 CALLS TO GCG PACKAGE FOR TRANSPORT TIME STEP   232 IN FLOW TIME STEP     1 STRESS PERIOD     1
      4 TOTAL ITERATIONS
     1 CALLS TO GCG PACKAGE FOR TRANSPORT TIME STEP   233 IN FLOW TIME STEP     1 STRESS PERIOD     1
      4 TOTAL ITERATIONS
     1 CALLS TO GCG PACKAGE FOR TRANSPORT TIME STEP   234 IN FLOW TIME STEP     1 STRESS PERIOD     1
      4 TOTAL ITERATIONS
     1 CALLS TO GCG PACKAGE FOR TRANSPORT TIME STEP   235 IN FLOW TIME STEP     1 STRESS PERIOD     1
      4 TOTAL ITERATIONS
     1 CALLS TO GCG PACKAGE FOR TRANSPORT TIME STEP   236 IN FLOW TIME STEP     1 STRESS PERIOD     1
      4 TOTAL ITERATIONS
     1 CALLS TO GCG PACKAGE FOR TRANSPORT TIME STEP   237 IN FLOW TIME STEP     1 STRESS PERIOD     1
      4 TOTAL ITERATIONS
     1 CALLS TO GCG PACKAGE FOR TRANSPORT TIME STEP   238 IN FLOW TIME STEP     1 STRESS PERIOD     1
      4 TOTAL ITERATIONS
     1 CALLS TO GCG PACKAGE FOR TRANSPORT TIME STEP   239 IN FLOW TIME STEP     1 STRESS PERIOD     1
      4 TOTAL ITERATIONS
     1 CALLS TO GCG PACKAGE FOR TRANSPORT TIME STEP   240 IN FLOW TIME STEP     1 STRESS PERIOD     1
      4 TOTAL ITERATIONS
     1 CALLS TO GCG PACKAGE FOR TRANSPORT TIME STEP   241 IN FLOW TIME STEP     1 STRESS PERIOD     1
      4 TOTAL ITERATIONS
     1 CALLS TO GCG PACKAGE FOR TRANSPORT TIME STEP   242 IN FLOW TIME STEP     1 STRESS PERIOD     1
      4 TOTAL ITERATIONS
     1 CALLS TO GCG PACKAGE FOR TRANSPORT TIME STEP   243 IN FLOW TIME STEP     1 STRESS PERIOD     1
      4 TOTAL ITERATIONS
     1 CALLS TO GCG PACKAGE FOR TRANSPORT TIME STEP   244 IN FLOW TIME STEP     1 STRESS PERIOD     1
      4 TOTAL ITERATIONS
     1 CALLS TO GCG PACKAGE FOR TRANSPORT TIME STEP   245 IN FLOW TIME STEP     1 STRESS PERIOD     1
      4 TOTAL ITERATIONS
     1 CALLS TO GCG PACKAGE FOR TRANSPORT TIME STEP   246 IN FLOW TIME STEP     1 STRESS PERIOD     1
      4 TOTAL ITERATIONS
     1 CALLS TO GCG PACKAGE FOR TRANSPORT TIME STEP   247 IN FLOW TIME STEP     1 STRESS PERIOD     1
      4 TOTAL ITERATIONS
     1 CALLS TO GCG PACKAGE FOR TRANSPORT TIME STEP   248 IN FLOW TIME STEP     1 STRESS PERIOD     1
      4 TOTAL ITERATIONS
     1 CALLS TO GCG PACKAGE FOR TRANSPORT TIME STEP   249 IN FLOW TIME STEP     1 STRESS PERIOD     1
      4 TOTAL ITERATIONS
     1 CALLS TO GCG PACKAGE FOR TRANSPORT TIME STEP   250 IN FLOW TIME STEP     1 STRESS PERIOD     1
      4 TOTAL ITERATIONS
     1 CALLS TO GCG PACKAGE FOR TRANSPORT TIME STEP   251 IN FLOW TIME STEP     1 STRESS PERIOD     1
      4 TOTAL ITERATIONS
     1 CALLS TO GCG PACKAGE FOR TRANSPORT TIME STEP   252 IN FLOW TIME STEP     1 STRESS PERIOD     1
      4 TOTAL ITERATIONS
     1 CALLS TO GCG PACKAGE FOR TRANSPORT TIME STEP   253 IN FLOW TIME STEP     1 STRESS PERIOD     1
      4 TOTAL ITERATIONS
     1 CALLS TO GCG PACKAGE FOR TRANSPORT TIME STEP   254 IN FLOW TIME STEP     1 STRESS PERIOD     1
      4 TOTAL ITERATIONS
     1 CALLS TO GCG PACKAGE FOR TRANSPORT TIME STEP   255 IN FLOW TIME STEP     1 STRESS PERIOD     1
      4 TOTAL ITERATIONS
     1 CALLS TO GCG PACKAGE FOR TRANSPORT TIME STEP   256 IN FLOW TIME STEP     1 STRESS PERIOD     1
      4 TOTAL ITERATIONS
     1 CALLS TO GCG PACKAGE FOR TRANSPORT TIME STEP   257 IN FLOW TIME STEP     1 STRESS PERIOD     1
      4 TOTAL ITERATIONS
     1 CALLS TO GCG PACKAGE FOR TRANSPORT TIME STEP   258 IN FLOW TIME STEP     1 STRESS PERIOD     1
      4 TOTAL ITERATIONS
     1 CALLS TO GCG PACKAGE FOR TRANSPORT TIME STEP   259 IN FLOW TIME STEP     1 STRESS PERIOD     1
      4 TOTAL ITERATIONS
     1 CALLS TO GCG PACKAGE FOR TRANSPORT TIME STEP   260 IN FLOW TIME STEP     1 STRESS PERIOD     1
      4 TOTAL ITERATIONS
     1 CALLS TO GCG PACKAGE FOR TRANSPORT TIME STEP   261 IN FLOW TIME STEP     1 STRESS PERIOD     1
      4 TOTAL ITERATIONS
     1 CALLS TO GCG PACKAGE FOR TRANSPORT TIME STEP   262 IN FLOW TIME STEP     1 STRESS PERIOD     1
      4 TOTAL ITERATIONS
     1 CALLS TO GCG PACKAGE FOR TRANSPORT TIME STEP   263 IN FLOW TIME STEP     1 STRESS PERIOD     1
      4 TOTAL ITERATIONS
     1 CALLS TO GCG PACKAGE FOR TRANSPORT TIME STEP   264 IN FLOW TIME STEP     1 STRESS PERIOD     1
      4 TOTAL ITERATIONS
     1 CALLS TO GCG PACKAGE FOR TRANSPORT TIME STEP   265 IN FLOW TIME STEP     1 STRESS PERIOD     1
      4 TOTAL ITERATIONS
     1 CALLS TO GCG PACKAGE FOR TRANSPORT TIME STEP   266 IN FLOW TIME STEP     1 STRESS PERIOD     1
      4 TOTAL ITERATIONS
     1 CALLS TO GCG PACKAGE FOR TRANSPORT TIME STEP   267 IN FLOW TIME STEP     1 STRESS PERIOD     1
      4 TOTAL ITERATIONS
     1 CALLS TO GCG PACKAGE FOR TRANSPORT TIME STEP   268 IN FLOW TIME STEP     1 STRESS PERIOD     1
      4 TOTAL ITERATIONS
     1 CALLS TO GCG PACKAGE FOR TRANSPORT TIME STEP   269 IN FLOW TIME STEP     1 STRESS PERIOD     1
      4 TOTAL ITERATIONS
     1 CALLS TO GCG PACKAGE FOR TRANSPORT TIME STEP   270 IN FLOW TIME STEP     1 STRESS PERIOD     1
      4 TOTAL ITERATIONS
     1 CALLS TO GCG PACKAGE FOR TRANSPORT TIME STEP   271 IN FLOW TIME STEP     1 STRESS PERIOD     1
      4 TOTAL ITERATIONS
     1 CALLS TO GCG PACKAGE FOR TRANSPORT TIME STEP   272 IN FLOW TIME STEP     1 STRESS PERIOD     1
      4 TOTAL ITERATIONS
     1 CALLS TO GCG PACKAGE FOR TRANSPORT TIME STEP   273 IN FLOW TIME STEP     1 STRESS PERIOD     1
      4 TOTAL ITERATIONS
     1 CALLS TO GCG PACKAGE FOR TRANSPORT TIME STEP   274 IN FLOW TIME STEP     1 STRESS PERIOD     1
      4 TOTAL ITERATIONS
     1 CALLS TO GCG PACKAGE FOR TRANSPORT TIME STEP   275 IN FLOW TIME STEP     1 STRESS PERIOD     1
      4 TOTAL ITERATIONS
     1 CALLS TO GCG PACKAGE FOR TRANSPORT TIME STEP   276 IN FLOW TIME STEP     1 STRESS PERIOD     1
      4 TOTAL ITERATIONS
     1 CALLS TO GCG PACKAGE FOR TRANSPORT TIME STEP   277 IN FLOW TIME STEP     1 STRESS PERIOD     1
      3 TOTAL ITERATIONS



 >>>>>>>>>>>>>>>>>>>>>>>>>>>>>>>>>>>>>>>>>>>>>>>>>>>>>>>FOR COMPONENT NO. 01<<<<<<<<<<<<<<<<<<<<<<<<<<<<<<<<<<<<<<<<<<<<<<<<<<<<<<<


                                            -------------------------------------------
                                                      TRANSPORT STEP NO.  277
                                            -------------------------------------------

 TOTAL ELAPSED TIME SINCE BEGINNING OF SIMULATION =   4.920000    D   
 .....................................................................

                     CUMULATIVE MASS BUDGETS AT END OF TRANSPORT STEP  277, TIME STEP    1, STRESS PERIOD    1
                     -----------------------------------------------------------------------------------------

                                                             IN                           OUT
                                                      ----------------             ----------------
                               CONSTANT CONCENTRATION:    0.000000                    0.000000    
                                        CONSTANT HEAD:    0.000000                  -0.2717586E-06
                                                WELLS:   0.3036345E-02                0.000000    
                               MASS STOR (FLOW MODEL):    0.000000                    0.000000    
                                MASS STORAGE (SOLUTE):   0.6777342E-07              -0.3036148E-02
                            ---------------------------------------------------------------------------
                                              [TOTAL]:   0.3036413E-02 KG           -0.3036420E-02 KG  

                                                          NET (IN - OUT):  -0.7217750E-08
                                                   DISCREPANCY (PERCENT):  -0.2377062E-03
     1 CALLS TO GCG PACKAGE FOR TRANSPORT TIME STEP   278 IN FLOW TIME STEP     1 STRESS PERIOD     1
      4 TOTAL ITERATIONS
     1 CALLS TO GCG PACKAGE FOR TRANSPORT TIME STEP   279 IN FLOW TIME STEP     1 STRESS PERIOD     1
      4 TOTAL ITERATIONS
     1 CALLS TO GCG PACKAGE FOR TRANSPORT TIME STEP   280 IN FLOW TIME STEP     1 STRESS PERIOD     1
      4 TOTAL ITERATIONS
     1 CALLS TO GCG PACKAGE FOR TRANSPORT TIME STEP   281 IN FLOW TIME STEP     1 STRESS PERIOD     1
      4 TOTAL ITERATIONS
     1 CALLS TO GCG PACKAGE FOR TRANSPORT TIME STEP   282 IN FLOW TIME STEP     1 STRESS PERIOD     1
      4 TOTAL ITERATIONS
     1 CALLS TO GCG PACKAGE FOR TRANSPORT TIME STEP   283 IN FLOW TIME STEP     1 STRESS PERIOD     1
      4 TOTAL ITERATIONS
     1 CALLS TO GCG PACKAGE FOR TRANSPORT TIME STEP   284 IN FLOW TIME STEP     1 STRESS PERIOD     1
      4 TOTAL ITERATIONS
     1 CALLS TO GCG PACKAGE FOR TRANSPORT TIME STEP   285 IN FLOW TIME STEP     1 STRESS PERIOD     1
      4 TOTAL ITERATIONS
     1 CALLS TO GCG PACKAGE FOR TRANSPORT TIME STEP   286 IN FLOW TIME STEP     1 STRESS PERIOD     1
      4 TOTAL ITERATIONS
     1 CALLS TO GCG PACKAGE FOR TRANSPORT TIME STEP   287 IN FLOW TIME STEP     1 STRESS PERIOD     1
      4 TOTAL ITERATIONS
     1 CALLS TO GCG PACKAGE FOR TRANSPORT TIME STEP   288 IN FLOW TIME STEP     1 STRESS PERIOD     1
      4 TOTAL ITERATIONS
     1 CALLS TO GCG PACKAGE FOR TRANSPORT TIME STEP   289 IN FLOW TIME STEP     1 STRESS PERIOD     1
      4 TOTAL ITERATIONS
     1 CALLS TO GCG PACKAGE FOR TRANSPORT TIME STEP   290 IN FLOW TIME STEP     1 STRESS PERIOD     1
      4 TOTAL ITERATIONS
     1 CALLS TO GCG PACKAGE FOR TRANSPORT TIME STEP   291 IN FLOW TIME STEP     1 STRESS PERIOD     1
      4 TOTAL ITERATIONS
     1 CALLS TO GCG PACKAGE FOR TRANSPORT TIME STEP   292 IN FLOW TIME STEP     1 STRESS PERIOD     1
      4 TOTAL ITERATIONS
     1 CALLS TO GCG PACKAGE FOR TRANSPORT TIME STEP   293 IN FLOW TIME STEP     1 STRESS PERIOD     1
      4 TOTAL ITERATIONS
     1 CALLS TO GCG PACKAGE FOR TRANSPORT TIME STEP   294 IN FLOW TIME STEP     1 STRESS PERIOD     1
      4 TOTAL ITERATIONS
     1 CALLS TO GCG PACKAGE FOR TRANSPORT TIME STEP   295 IN FLOW TIME STEP     1 STRESS PERIOD     1
      4 TOTAL ITERATIONS
     1 CALLS TO GCG PACKAGE FOR TRANSPORT TIME STEP   296 IN FLOW TIME STEP     1 STRESS PERIOD     1
      4 TOTAL ITERATIONS
     1 CALLS TO GCG PACKAGE FOR TRANSPORT TIME STEP   297 IN FLOW TIME STEP     1 STRESS PERIOD     1
      4 TOTAL ITERATIONS
     1 CALLS TO GCG PACKAGE FOR TRANSPORT TIME STEP   298 IN FLOW TIME STEP     1 STRESS PERIOD     1
      4 TOTAL ITERATIONS
     1 CALLS TO GCG PACKAGE FOR TRANSPORT TIME STEP   299 IN FLOW TIME STEP     1 STRESS PERIOD     1
      4 TOTAL ITERATIONS
     1 CALLS TO GCG PACKAGE FOR TRANSPORT TIME STEP   300 IN FLOW TIME STEP     1 STRESS PERIOD     1
      4 TOTAL ITERATIONS
     1 CALLS TO GCG PACKAGE FOR TRANSPORT TIME STEP   301 IN FLOW TIME STEP     1 STRESS PERIOD     1
      4 TOTAL ITERATIONS
     1 CALLS TO GCG PACKAGE FOR TRANSPORT TIME STEP   302 IN FLOW TIME STEP     1 STRESS PERIOD     1
      4 TOTAL ITERATIONS
     1 CALLS TO GCG PACKAGE FOR TRANSPORT TIME STEP   303 IN FLOW TIME STEP     1 STRESS PERIOD     1
      4 TOTAL ITERATIONS
     1 CALLS TO GCG PACKAGE FOR TRANSPORT TIME STEP   304 IN FLOW TIME STEP     1 STRESS PERIOD     1
      4 TOTAL ITERATIONS
     1 CALLS TO GCG PACKAGE FOR TRANSPORT TIME STEP   305 IN FLOW TIME STEP     1 STRESS PERIOD     1
      4 TOTAL ITERATIONS
     1 CALLS TO GCG PACKAGE FOR TRANSPORT TIME STEP   306 IN FLOW TIME STEP     1 STRESS PERIOD     1
      4 TOTAL ITERATIONS
     1 CALLS TO GCG PACKAGE FOR TRANSPORT TIME STEP   307 IN FLOW TIME STEP     1 STRESS PERIOD     1
      4 TOTAL ITERATIONS
     1 CALLS TO GCG PACKAGE FOR TRANSPORT TIME STEP   308 IN FLOW TIME STEP     1 STRESS PERIOD     1
      4 TOTAL ITERATIONS
     1 CALLS TO GCG PACKAGE FOR TRANSPORT TIME STEP   309 IN FLOW TIME STEP     1 STRESS PERIOD     1
      4 TOTAL ITERATIONS
     1 CALLS TO GCG PACKAGE FOR TRANSPORT TIME STEP   310 IN FLOW TIME STEP     1 STRESS PERIOD     1
      4 TOTAL ITERATIONS
     1 CALLS TO GCG PACKAGE FOR TRANSPORT TIME STEP   311 IN FLOW TIME STEP     1 STRESS PERIOD     1
      4 TOTAL ITERATIONS
     1 CALLS TO GCG PACKAGE FOR TRANSPORT TIME STEP   312 IN FLOW TIME STEP     1 STRESS PERIOD     1
      4 TOTAL ITERATIONS
     1 CALLS TO GCG PACKAGE FOR TRANSPORT TIME STEP   313 IN FLOW TIME STEP     1 STRESS PERIOD     1
      4 TOTAL ITERATIONS
     1 CALLS TO GCG PACKAGE FOR TRANSPORT TIME STEP   314 IN FLOW TIME STEP     1 STRESS PERIOD     1
      4 TOTAL ITERATIONS
     1 CALLS TO GCG PACKAGE FOR TRANSPORT TIME STEP   315 IN FLOW TIME STEP     1 STRESS PERIOD     1
      4 TOTAL ITERATIONS
     1 CALLS TO GCG PACKAGE FOR TRANSPORT TIME STEP   316 IN FLOW TIME STEP     1 STRESS PERIOD     1
      4 TOTAL ITERATIONS
     1 CALLS TO GCG PACKAGE FOR TRANSPORT TIME STEP   317 IN FLOW TIME STEP     1 STRESS PERIOD     1
      4 TOTAL ITERATIONS
     1 CALLS TO GCG PACKAGE FOR TRANSPORT TIME STEP   318 IN FLOW TIME STEP     1 STRESS PERIOD     1
      4 TOTAL ITERATIONS
     1 CALLS TO GCG PACKAGE FOR TRANSPORT TIME STEP   319 IN FLOW TIME STEP     1 STRESS PERIOD     1
      4 TOTAL ITERATIONS
     1 CALLS TO GCG PACKAGE FOR TRANSPORT TIME STEP   320 IN FLOW TIME STEP     1 STRESS PERIOD     1
      4 TOTAL ITERATIONS
     1 CALLS TO GCG PACKAGE FOR TRANSPORT TIME STEP   321 IN FLOW TIME STEP     1 STRESS PERIOD     1
      4 TOTAL ITERATIONS
     1 CALLS TO GCG PACKAGE FOR TRANSPORT TIME STEP   322 IN FLOW TIME STEP     1 STRESS PERIOD     1
      4 TOTAL ITERATIONS
     1 CALLS TO GCG PACKAGE FOR TRANSPORT TIME STEP   323 IN FLOW TIME STEP     1 STRESS PERIOD     1
      3 TOTAL ITERATIONS



 >>>>>>>>>>>>>>>>>>>>>>>>>>>>>>>>>>>>>>>>>>>>>>>>>>>>>>>FOR COMPONENT NO. 01<<<<<<<<<<<<<<<<<<<<<<<<<<<<<<<<<<<<<<<<<<<<<<<<<<<<<<<


                                            -------------------------------------------
                                                      TRANSPORT STEP NO.  323
                                            -------------------------------------------

 TOTAL ELAPSED TIME SINCE BEGINNING OF SIMULATION =   5.740000    D   
 .....................................................................

                     CUMULATIVE MASS BUDGETS AT END OF TRANSPORT STEP  323, TIME STEP    1, STRESS PERIOD    1
                     -----------------------------------------------------------------------------------------

                                                             IN                           OUT
                                                      ----------------             ----------------
                               CONSTANT CONCENTRATION:    0.000000                    0.000000    
                                        CONSTANT HEAD:    0.000000                  -0.6979310E-05
                                                WELLS:   0.3542397E-02                0.000000    
                               MASS STOR (FLOW MODEL):    0.000000                    0.000000    
                                MASS STORAGE (SOLUTE):   0.9282933E-07              -0.3535521E-02
                            ---------------------------------------------------------------------------
                                              [TOTAL]:   0.3542490E-02 KG           -0.3542500E-02 KG  

                                                          NET (IN - OUT):  -0.1024455E-07
                                                   DISCREPANCY (PERCENT):  -0.2891902E-03
     1 CALLS TO GCG PACKAGE FOR TRANSPORT TIME STEP   324 IN FLOW TIME STEP     1 STRESS PERIOD     1
      4 TOTAL ITERATIONS
     1 CALLS TO GCG PACKAGE FOR TRANSPORT TIME STEP   325 IN FLOW TIME STEP     1 STRESS PERIOD     1
      4 TOTAL ITERATIONS
     1 CALLS TO GCG PACKAGE FOR TRANSPORT TIME STEP   326 IN FLOW TIME STEP     1 STRESS PERIOD     1
      4 TOTAL ITERATIONS
     1 CALLS TO GCG PACKAGE FOR TRANSPORT TIME STEP   327 IN FLOW TIME STEP     1 STRESS PERIOD     1
      4 TOTAL ITERATIONS
     1 CALLS TO GCG PACKAGE FOR TRANSPORT TIME STEP   328 IN FLOW TIME STEP     1 STRESS PERIOD     1
      4 TOTAL ITERATIONS
     1 CALLS TO GCG PACKAGE FOR TRANSPORT TIME STEP   329 IN FLOW TIME STEP     1 STRESS PERIOD     1
      4 TOTAL ITERATIONS
     1 CALLS TO GCG PACKAGE FOR TRANSPORT TIME STEP   330 IN FLOW TIME STEP     1 STRESS PERIOD     1
      4 TOTAL ITERATIONS
     1 CALLS TO GCG PACKAGE FOR TRANSPORT TIME STEP   331 IN FLOW TIME STEP     1 STRESS PERIOD     1
      4 TOTAL ITERATIONS
     1 CALLS TO GCG PACKAGE FOR TRANSPORT TIME STEP   332 IN FLOW TIME STEP     1 STRESS PERIOD     1
      4 TOTAL ITERATIONS
     1 CALLS TO GCG PACKAGE FOR TRANSPORT TIME STEP   333 IN FLOW TIME STEP     1 STRESS PERIOD     1
      4 TOTAL ITERATIONS
     1 CALLS TO GCG PACKAGE FOR TRANSPORT TIME STEP   334 IN FLOW TIME STEP     1 STRESS PERIOD     1
      4 TOTAL ITERATIONS
     1 CALLS TO GCG PACKAGE FOR TRANSPORT TIME STEP   335 IN FLOW TIME STEP     1 STRESS PERIOD     1
      4 TOTAL ITERATIONS
     1 CALLS TO GCG PACKAGE FOR TRANSPORT TIME STEP   336 IN FLOW TIME STEP     1 STRESS PERIOD     1
      4 TOTAL ITERATIONS
     1 CALLS TO GCG PACKAGE FOR TRANSPORT TIME STEP   337 IN FLOW TIME STEP     1 STRESS PERIOD     1
      4 TOTAL ITERATIONS
     1 CALLS TO GCG PACKAGE FOR TRANSPORT TIME STEP   338 IN FLOW TIME STEP     1 STRESS PERIOD     1
      4 TOTAL ITERATIONS
     1 CALLS TO GCG PACKAGE FOR TRANSPORT TIME STEP   339 IN FLOW TIME STEP     1 STRESS PERIOD     1
      4 TOTAL ITERATIONS
     1 CALLS TO GCG PACKAGE FOR TRANSPORT TIME STEP   340 IN FLOW TIME STEP     1 STRESS PERIOD     1
      4 TOTAL ITERATIONS
     1 CALLS TO GCG PACKAGE FOR TRANSPORT TIME STEP   341 IN FLOW TIME STEP     1 STRESS PERIOD     1
      4 TOTAL ITERATIONS
     1 CALLS TO GCG PACKAGE FOR TRANSPORT TIME STEP   342 IN FLOW TIME STEP     1 STRESS PERIOD     1
      4 TOTAL ITERATIONS
     1 CALLS TO GCG PACKAGE FOR TRANSPORT TIME STEP   343 IN FLOW TIME STEP     1 STRESS PERIOD     1
      4 TOTAL ITERATIONS
     1 CALLS TO GCG PACKAGE FOR TRANSPORT TIME STEP   344 IN FLOW TIME STEP     1 STRESS PERIOD     1
      4 TOTAL ITERATIONS
     1 CALLS TO GCG PACKAGE FOR TRANSPORT TIME STEP   345 IN FLOW TIME STEP     1 STRESS PERIOD     1
      4 TOTAL ITERATIONS
     1 CALLS TO GCG PACKAGE FOR TRANSPORT TIME STEP   346 IN FLOW TIME STEP     1 STRESS PERIOD     1
      4 TOTAL ITERATIONS
     1 CALLS TO GCG PACKAGE FOR TRANSPORT TIME STEP   347 IN FLOW TIME STEP     1 STRESS PERIOD     1
      4 TOTAL ITERATIONS
     1 CALLS TO GCG PACKAGE FOR TRANSPORT TIME STEP   348 IN FLOW TIME STEP     1 STRESS PERIOD     1
      4 TOTAL ITERATIONS
     1 CALLS TO GCG PACKAGE FOR TRANSPORT TIME STEP   349 IN FLOW TIME STEP     1 STRESS PERIOD     1
      4 TOTAL ITERATIONS
     1 CALLS TO GCG PACKAGE FOR TRANSPORT TIME STEP   350 IN FLOW TIME STEP     1 STRESS PERIOD     1
      4 TOTAL ITERATIONS
     1 CALLS TO GCG PACKAGE FOR TRANSPORT TIME STEP   351 IN FLOW TIME STEP     1 STRESS PERIOD     1
      4 TOTAL ITERATIONS
     1 CALLS TO GCG PACKAGE FOR TRANSPORT TIME STEP   352 IN FLOW TIME STEP     1 STRESS PERIOD     1
      4 TOTAL ITERATIONS
     1 CALLS TO GCG PACKAGE FOR TRANSPORT TIME STEP   353 IN FLOW TIME STEP     1 STRESS PERIOD     1
      4 TOTAL ITERATIONS
     1 CALLS TO GCG PACKAGE FOR TRANSPORT TIME STEP   354 IN FLOW TIME STEP     1 STRESS PERIOD     1
      4 TOTAL ITERATIONS
     1 CALLS TO GCG PACKAGE FOR TRANSPORT TIME STEP   355 IN FLOW TIME STEP     1 STRESS PERIOD     1
      4 TOTAL ITERATIONS
     1 CALLS TO GCG PACKAGE FOR TRANSPORT TIME STEP   356 IN FLOW TIME STEP     1 STRESS PERIOD     1
      4 TOTAL ITERATIONS
     1 CALLS TO GCG PACKAGE FOR TRANSPORT TIME STEP   357 IN FLOW TIME STEP     1 STRESS PERIOD     1
      4 TOTAL ITERATIONS
     1 CALLS TO GCG PACKAGE FOR TRANSPORT TIME STEP   358 IN FLOW TIME STEP     1 STRESS PERIOD     1
      4 TOTAL ITERATIONS
     1 CALLS TO GCG PACKAGE FOR TRANSPORT TIME STEP   359 IN FLOW TIME STEP     1 STRESS PERIOD     1
      4 TOTAL ITERATIONS
     1 CALLS TO GCG PACKAGE FOR TRANSPORT TIME STEP   360 IN FLOW TIME STEP     1 STRESS PERIOD     1
      4 TOTAL ITERATIONS
     1 CALLS TO GCG PACKAGE FOR TRANSPORT TIME STEP   361 IN FLOW TIME STEP     1 STRESS PERIOD     1
      4 TOTAL ITERATIONS
     1 CALLS TO GCG PACKAGE FOR TRANSPORT TIME STEP   362 IN FLOW TIME STEP     1 STRESS PERIOD     1
      4 TOTAL ITERATIONS
     1 CALLS TO GCG PACKAGE FOR TRANSPORT TIME STEP   363 IN FLOW TIME STEP     1 STRESS PERIOD     1
      4 TOTAL ITERATIONS
     1 CALLS TO GCG PACKAGE FOR TRANSPORT TIME STEP   364 IN FLOW TIME STEP     1 STRESS PERIOD     1
      4 TOTAL ITERATIONS
     1 CALLS TO GCG PACKAGE FOR TRANSPORT TIME STEP   365 IN FLOW TIME STEP     1 STRESS PERIOD     1
      4 TOTAL ITERATIONS
     1 CALLS TO GCG PACKAGE FOR TRANSPORT TIME STEP   366 IN FLOW TIME STEP     1 STRESS PERIOD     1
      4 TOTAL ITERATIONS
     1 CALLS TO GCG PACKAGE FOR TRANSPORT TIME STEP   367 IN FLOW TIME STEP     1 STRESS PERIOD     1
      4 TOTAL ITERATIONS
     1 CALLS TO GCG PACKAGE FOR TRANSPORT TIME STEP   368 IN FLOW TIME STEP     1 STRESS PERIOD     1
      4 TOTAL ITERATIONS
     1 CALLS TO GCG PACKAGE FOR TRANSPORT TIME STEP   369 IN FLOW TIME STEP     1 STRESS PERIOD     1
      3 TOTAL ITERATIONS



 >>>>>>>>>>>>>>>>>>>>>>>>>>>>>>>>>>>>>>>>>>>>>>>>>>>>>>>FOR COMPONENT NO. 01<<<<<<<<<<<<<<<<<<<<<<<<<<<<<<<<<<<<<<<<<<<<<<<<<<<<<<<


                                            -------------------------------------------
                                                      TRANSPORT STEP NO.  369
                                            -------------------------------------------

 TOTAL ELAPSED TIME SINCE BEGINNING OF SIMULATION =   6.560000    D   
 .....................................................................

                     CUMULATIVE MASS BUDGETS AT END OF TRANSPORT STEP  369, TIME STEP    1, STRESS PERIOD    1
                     -----------------------------------------------------------------------------------------

                                                             IN                           OUT
                                                      ----------------             ----------------
                               CONSTANT CONCENTRATION:    0.000000                    0.000000    
                                        CONSTANT HEAD:    0.000000                  -0.5388637E-04
                                                WELLS:   0.4048450E-02                0.000000    
                               MASS STOR (FLOW MODEL):    0.000000                    0.000000    
                                MASS STORAGE (SOLUTE):   0.1189799E-06              -0.3994696E-02
                            ---------------------------------------------------------------------------
                                              [TOTAL]:   0.4048569E-02 KG           -0.4048582E-02 KG  

                                                          NET (IN - OUT):  -0.1303852E-07
                                                   DISCREPANCY (PERCENT):  -0.3220519E-03
     1 CALLS TO GCG PACKAGE FOR TRANSPORT TIME STEP   370 IN FLOW TIME STEP     1 STRESS PERIOD     1
      4 TOTAL ITERATIONS
     1 CALLS TO GCG PACKAGE FOR TRANSPORT TIME STEP   371 IN FLOW TIME STEP     1 STRESS PERIOD     1
      4 TOTAL ITERATIONS
     1 CALLS TO GCG PACKAGE FOR TRANSPORT TIME STEP   372 IN FLOW TIME STEP     1 STRESS PERIOD     1
      4 TOTAL ITERATIONS
     1 CALLS TO GCG PACKAGE FOR TRANSPORT TIME STEP   373 IN FLOW TIME STEP     1 STRESS PERIOD     1
      4 TOTAL ITERATIONS
     1 CALLS TO GCG PACKAGE FOR TRANSPORT TIME STEP   374 IN FLOW TIME STEP     1 STRESS PERIOD     1
      4 TOTAL ITERATIONS
     1 CALLS TO GCG PACKAGE FOR TRANSPORT TIME STEP   375 IN FLOW TIME STEP     1 STRESS PERIOD     1
      4 TOTAL ITERATIONS
     1 CALLS TO GCG PACKAGE FOR TRANSPORT TIME STEP   376 IN FLOW TIME STEP     1 STRESS PERIOD     1
      4 TOTAL ITERATIONS
     1 CALLS TO GCG PACKAGE FOR TRANSPORT TIME STEP   377 IN FLOW TIME STEP     1 STRESS PERIOD     1
      4 TOTAL ITERATIONS
     1 CALLS TO GCG PACKAGE FOR TRANSPORT TIME STEP   378 IN FLOW TIME STEP     1 STRESS PERIOD     1
      4 TOTAL ITERATIONS
     1 CALLS TO GCG PACKAGE FOR TRANSPORT TIME STEP   379 IN FLOW TIME STEP     1 STRESS PERIOD     1
      4 TOTAL ITERATIONS
     1 CALLS TO GCG PACKAGE FOR TRANSPORT TIME STEP   380 IN FLOW TIME STEP     1 STRESS PERIOD     1
      4 TOTAL ITERATIONS
     1 CALLS TO GCG PACKAGE FOR TRANSPORT TIME STEP   381 IN FLOW TIME STEP     1 STRESS PERIOD     1
      4 TOTAL ITERATIONS
     1 CALLS TO GCG PACKAGE FOR TRANSPORT TIME STEP   382 IN FLOW TIME STEP     1 STRESS PERIOD     1
      4 TOTAL ITERATIONS
     1 CALLS TO GCG PACKAGE FOR TRANSPORT TIME STEP   383 IN FLOW TIME STEP     1 STRESS PERIOD     1
      4 TOTAL ITERATIONS
     1 CALLS TO GCG PACKAGE FOR TRANSPORT TIME STEP   384 IN FLOW TIME STEP     1 STRESS PERIOD     1
      4 TOTAL ITERATIONS
     1 CALLS TO GCG PACKAGE FOR TRANSPORT TIME STEP   385 IN FLOW TIME STEP     1 STRESS PERIOD     1
      4 TOTAL ITERATIONS
     1 CALLS TO GCG PACKAGE FOR TRANSPORT TIME STEP   386 IN FLOW TIME STEP     1 STRESS PERIOD     1
      4 TOTAL ITERATIONS
     1 CALLS TO GCG PACKAGE FOR TRANSPORT TIME STEP   387 IN FLOW TIME STEP     1 STRESS PERIOD     1
      4 TOTAL ITERATIONS
     1 CALLS TO GCG PACKAGE FOR TRANSPORT TIME STEP   388 IN FLOW TIME STEP     1 STRESS PERIOD     1
      4 TOTAL ITERATIONS
     1 CALLS TO GCG PACKAGE FOR TRANSPORT TIME STEP   389 IN FLOW TIME STEP     1 STRESS PERIOD     1
      4 TOTAL ITERATIONS
     1 CALLS TO GCG PACKAGE FOR TRANSPORT TIME STEP   390 IN FLOW TIME STEP     1 STRESS PERIOD     1
      4 TOTAL ITERATIONS
     1 CALLS TO GCG PACKAGE FOR TRANSPORT TIME STEP   391 IN FLOW TIME STEP     1 STRESS PERIOD     1
      4 TOTAL ITERATIONS
     1 CALLS TO GCG PACKAGE FOR TRANSPORT TIME STEP   392 IN FLOW TIME STEP     1 STRESS PERIOD     1
      4 TOTAL ITERATIONS
     1 CALLS TO GCG PACKAGE FOR TRANSPORT TIME STEP   393 IN FLOW TIME STEP     1 STRESS PERIOD     1
      4 TOTAL ITERATIONS
     1 CALLS TO GCG PACKAGE FOR TRANSPORT TIME STEP   394 IN FLOW TIME STEP     1 STRESS PERIOD     1
      4 TOTAL ITERATIONS
     1 CALLS TO GCG PACKAGE FOR TRANSPORT TIME STEP   395 IN FLOW TIME STEP     1 STRESS PERIOD     1
      4 TOTAL ITERATIONS
     1 CALLS TO GCG PACKAGE FOR TRANSPORT TIME STEP   396 IN FLOW TIME STEP     1 STRESS PERIOD     1
      4 TOTAL ITERATIONS
     1 CALLS TO GCG PACKAGE FOR TRANSPORT TIME STEP   397 IN FLOW TIME STEP     1 STRESS PERIOD     1
      4 TOTAL ITERATIONS
     1 CALLS TO GCG PACKAGE FOR TRANSPORT TIME STEP   398 IN FLOW TIME STEP     1 STRESS PERIOD     1
      4 TOTAL ITERATIONS
     1 CALLS TO GCG PACKAGE FOR TRANSPORT TIME STEP   399 IN FLOW TIME STEP     1 STRESS PERIOD     1
      4 TOTAL ITERATIONS
     1 CALLS TO GCG PACKAGE FOR TRANSPORT TIME STEP   400 IN FLOW TIME STEP     1 STRESS PERIOD     1
      4 TOTAL ITERATIONS
     1 CALLS TO GCG PACKAGE FOR TRANSPORT TIME STEP   401 IN FLOW TIME STEP     1 STRESS PERIOD     1
      4 TOTAL ITERATIONS
     1 CALLS TO GCG PACKAGE FOR TRANSPORT TIME STEP   402 IN FLOW TIME STEP     1 STRESS PERIOD     1
      4 TOTAL ITERATIONS
     1 CALLS TO GCG PACKAGE FOR TRANSPORT TIME STEP   403 IN FLOW TIME STEP     1 STRESS PERIOD     1
      4 TOTAL ITERATIONS
     1 CALLS TO GCG PACKAGE FOR TRANSPORT TIME STEP   404 IN FLOW TIME STEP     1 STRESS PERIOD     1
      4 TOTAL ITERATIONS
     1 CALLS TO GCG PACKAGE FOR TRANSPORT TIME STEP   405 IN FLOW TIME STEP     1 STRESS PERIOD     1
      4 TOTAL ITERATIONS
     1 CALLS TO GCG PACKAGE FOR TRANSPORT TIME STEP   406 IN FLOW TIME STEP     1 STRESS PERIOD     1
      4 TOTAL ITERATIONS
     1 CALLS TO GCG PACKAGE FOR TRANSPORT TIME STEP   407 IN FLOW TIME STEP     1 STRESS PERIOD     1
      4 TOTAL ITERATIONS
     1 CALLS TO GCG PACKAGE FOR TRANSPORT TIME STEP   408 IN FLOW TIME STEP     1 STRESS PERIOD     1
      4 TOTAL ITERATIONS
     1 CALLS TO GCG PACKAGE FOR TRANSPORT TIME STEP   409 IN FLOW TIME STEP     1 STRESS PERIOD     1
      4 TOTAL ITERATIONS
     1 CALLS TO GCG PACKAGE FOR TRANSPORT TIME STEP   410 IN FLOW TIME STEP     1 STRESS PERIOD     1
      4 TOTAL ITERATIONS
     1 CALLS TO GCG PACKAGE FOR TRANSPORT TIME STEP   411 IN FLOW TIME STEP     1 STRESS PERIOD     1
      4 TOTAL ITERATIONS
     1 CALLS TO GCG PACKAGE FOR TRANSPORT TIME STEP   412 IN FLOW TIME STEP     1 STRESS PERIOD     1
      4 TOTAL ITERATIONS
     1 CALLS TO GCG PACKAGE FOR TRANSPORT TIME STEP   413 IN FLOW TIME STEP     1 STRESS PERIOD     1
      4 TOTAL ITERATIONS
     1 CALLS TO GCG PACKAGE FOR TRANSPORT TIME STEP   414 IN FLOW TIME STEP     1 STRESS PERIOD     1
      4 TOTAL ITERATIONS
     1 CALLS TO GCG PACKAGE FOR TRANSPORT TIME STEP   415 IN FLOW TIME STEP     1 STRESS PERIOD     1
      3 TOTAL ITERATIONS



 >>>>>>>>>>>>>>>>>>>>>>>>>>>>>>>>>>>>>>>>>>>>>>>>>>>>>>>FOR COMPONENT NO. 01<<<<<<<<<<<<<<<<<<<<<<<<<<<<<<<<<<<<<<<<<<<<<<<<<<<<<<<


                                            -------------------------------------------
                                                      TRANSPORT STEP NO.  415
                                            -------------------------------------------

 TOTAL ELAPSED TIME SINCE BEGINNING OF SIMULATION =   7.380000    D   
 .....................................................................

                     CUMULATIVE MASS BUDGETS AT END OF TRANSPORT STEP  415, TIME STEP    1, STRESS PERIOD    1
                     -----------------------------------------------------------------------------------------

                                                             IN                           OUT
                                                      ----------------             ----------------
                               CONSTANT CONCENTRATION:    0.000000                    0.000000    
                                        CONSTANT HEAD:    0.000000                  -0.1982289E-03
                                                WELLS:   0.4554503E-02                0.000000    
                               MASS STOR (FLOW MODEL):    0.000000                    0.000000    
                                MASS STORAGE (SOLUTE):   0.1464174E-06              -0.4356438E-02
                            ---------------------------------------------------------------------------
                                              [TOTAL]:   0.4554649E-02 KG           -0.4554667E-02 KG  

                                                          NET (IN - OUT):  -0.1769513E-07
                                                   DISCREPANCY (PERCENT):  -0.3885062E-03
     1 CALLS TO GCG PACKAGE FOR TRANSPORT TIME STEP   416 IN FLOW TIME STEP     1 STRESS PERIOD     1
      4 TOTAL ITERATIONS
     1 CALLS TO GCG PACKAGE FOR TRANSPORT TIME STEP   417 IN FLOW TIME STEP     1 STRESS PERIOD     1
      4 TOTAL ITERATIONS
     1 CALLS TO GCG PACKAGE FOR TRANSPORT TIME STEP   418 IN FLOW TIME STEP     1 STRESS PERIOD     1
      4 TOTAL ITERATIONS
     1 CALLS TO GCG PACKAGE FOR TRANSPORT TIME STEP   419 IN FLOW TIME STEP     1 STRESS PERIOD     1
      4 TOTAL ITERATIONS
     1 CALLS TO GCG PACKAGE FOR TRANSPORT TIME STEP   420 IN FLOW TIME STEP     1 STRESS PERIOD     1
      4 TOTAL ITERATIONS
     1 CALLS TO GCG PACKAGE FOR TRANSPORT TIME STEP   421 IN FLOW TIME STEP     1 STRESS PERIOD     1
      4 TOTAL ITERATIONS
     1 CALLS TO GCG PACKAGE FOR TRANSPORT TIME STEP   422 IN FLOW TIME STEP     1 STRESS PERIOD     1
      4 TOTAL ITERATIONS
     1 CALLS TO GCG PACKAGE FOR TRANSPORT TIME STEP   423 IN FLOW TIME STEP     1 STRESS PERIOD     1
      4 TOTAL ITERATIONS
     1 CALLS TO GCG PACKAGE FOR TRANSPORT TIME STEP   424 IN FLOW TIME STEP     1 STRESS PERIOD     1
      4 TOTAL ITERATIONS
     1 CALLS TO GCG PACKAGE FOR TRANSPORT TIME STEP   425 IN FLOW TIME STEP     1 STRESS PERIOD     1
      4 TOTAL ITERATIONS
     1 CALLS TO GCG PACKAGE FOR TRANSPORT TIME STEP   426 IN FLOW TIME STEP     1 STRESS PERIOD     1
      4 TOTAL ITERATIONS
     1 CALLS TO GCG PACKAGE FOR TRANSPORT TIME STEP   427 IN FLOW TIME STEP     1 STRESS PERIOD     1
      4 TOTAL ITERATIONS
     1 CALLS TO GCG PACKAGE FOR TRANSPORT TIME STEP   428 IN FLOW TIME STEP     1 STRESS PERIOD     1
      4 TOTAL ITERATIONS
     1 CALLS TO GCG PACKAGE FOR TRANSPORT TIME STEP   429 IN FLOW TIME STEP     1 STRESS PERIOD     1
      4 TOTAL ITERATIONS
     1 CALLS TO GCG PACKAGE FOR TRANSPORT TIME STEP   430 IN FLOW TIME STEP     1 STRESS PERIOD     1
      4 TOTAL ITERATIONS
     1 CALLS TO GCG PACKAGE FOR TRANSPORT TIME STEP   431 IN FLOW TIME STEP     1 STRESS PERIOD     1
      4 TOTAL ITERATIONS
     1 CALLS TO GCG PACKAGE FOR TRANSPORT TIME STEP   432 IN FLOW TIME STEP     1 STRESS PERIOD     1
      4 TOTAL ITERATIONS
     1 CALLS TO GCG PACKAGE FOR TRANSPORT TIME STEP   433 IN FLOW TIME STEP     1 STRESS PERIOD     1
      4 TOTAL ITERATIONS
     1 CALLS TO GCG PACKAGE FOR TRANSPORT TIME STEP   434 IN FLOW TIME STEP     1 STRESS PERIOD     1
      4 TOTAL ITERATIONS
     1 CALLS TO GCG PACKAGE FOR TRANSPORT TIME STEP   435 IN FLOW TIME STEP     1 STRESS PERIOD     1
      4 TOTAL ITERATIONS
     1 CALLS TO GCG PACKAGE FOR TRANSPORT TIME STEP   436 IN FLOW TIME STEP     1 STRESS PERIOD     1
      4 TOTAL ITERATIONS
     1 CALLS TO GCG PACKAGE FOR TRANSPORT TIME STEP   437 IN FLOW TIME STEP     1 STRESS PERIOD     1
      4 TOTAL ITERATIONS
     1 CALLS TO GCG PACKAGE FOR TRANSPORT TIME STEP   438 IN FLOW TIME STEP     1 STRESS PERIOD     1
      4 TOTAL ITERATIONS
     1 CALLS TO GCG PACKAGE FOR TRANSPORT TIME STEP   439 IN FLOW TIME STEP     1 STRESS PERIOD     1
      4 TOTAL ITERATIONS
     1 CALLS TO GCG PACKAGE FOR TRANSPORT TIME STEP   440 IN FLOW TIME STEP     1 STRESS PERIOD     1
      4 TOTAL ITERATIONS
     1 CALLS TO GCG PACKAGE FOR TRANSPORT TIME STEP   441 IN FLOW TIME STEP     1 STRESS PERIOD     1
      4 TOTAL ITERATIONS
     1 CALLS TO GCG PACKAGE FOR TRANSPORT TIME STEP   442 IN FLOW TIME STEP     1 STRESS PERIOD     1
      4 TOTAL ITERATIONS
     1 CALLS TO GCG PACKAGE FOR TRANSPORT TIME STEP   443 IN FLOW TIME STEP     1 STRESS PERIOD     1
      4 TOTAL ITERATIONS
     1 CALLS TO GCG PACKAGE FOR TRANSPORT TIME STEP   444 IN FLOW TIME STEP     1 STRESS PERIOD     1
      4 TOTAL ITERATIONS
     1 CALLS TO GCG PACKAGE FOR TRANSPORT TIME STEP   445 IN FLOW TIME STEP     1 STRESS PERIOD     1
      4 TOTAL ITERATIONS
     1 CALLS TO GCG PACKAGE FOR TRANSPORT TIME STEP   446 IN FLOW TIME STEP     1 STRESS PERIOD     1
      4 TOTAL ITERATIONS
     1 CALLS TO GCG PACKAGE FOR TRANSPORT TIME STEP   447 IN FLOW TIME STEP     1 STRESS PERIOD     1
      4 TOTAL ITERATIONS
     1 CALLS TO GCG PACKAGE FOR TRANSPORT TIME STEP   448 IN FLOW TIME STEP     1 STRESS PERIOD     1
      4 TOTAL ITERATIONS
     1 CALLS TO GCG PACKAGE FOR TRANSPORT TIME STEP   449 IN FLOW TIME STEP     1 STRESS PERIOD     1
      4 TOTAL ITERATIONS
     1 CALLS TO GCG PACKAGE FOR TRANSPORT TIME STEP   450 IN FLOW TIME STEP     1 STRESS PERIOD     1
      4 TOTAL ITERATIONS
     1 CALLS TO GCG PACKAGE FOR TRANSPORT TIME STEP   451 IN FLOW TIME STEP     1 STRESS PERIOD     1
      4 TOTAL ITERATIONS
     1 CALLS TO GCG PACKAGE FOR TRANSPORT TIME STEP   452 IN FLOW TIME STEP     1 STRESS PERIOD     1
      4 TOTAL ITERATIONS
     1 CALLS TO GCG PACKAGE FOR TRANSPORT TIME STEP   453 IN FLOW TIME STEP     1 STRESS PERIOD     1
      4 TOTAL ITERATIONS
     1 CALLS TO GCG PACKAGE FOR TRANSPORT TIME STEP   454 IN FLOW TIME STEP     1 STRESS PERIOD     1
      4 TOTAL ITERATIONS
     1 CALLS TO GCG PACKAGE FOR TRANSPORT TIME STEP   455 IN FLOW TIME STEP     1 STRESS PERIOD     1
      4 TOTAL ITERATIONS
     1 CALLS TO GCG PACKAGE FOR TRANSPORT TIME STEP   456 IN FLOW TIME STEP     1 STRESS PERIOD     1
      4 TOTAL ITERATIONS
     1 CALLS TO GCG PACKAGE FOR TRANSPORT TIME STEP   457 IN FLOW TIME STEP     1 STRESS PERIOD     1
      4 TOTAL ITERATIONS
     1 CALLS TO GCG PACKAGE FOR TRANSPORT TIME STEP   458 IN FLOW TIME STEP     1 STRESS PERIOD     1
      4 TOTAL ITERATIONS
     1 CALLS TO GCG PACKAGE FOR TRANSPORT TIME STEP   459 IN FLOW TIME STEP     1 STRESS PERIOD     1
      4 TOTAL ITERATIONS
     1 CALLS TO GCG PACKAGE FOR TRANSPORT TIME STEP   460 IN FLOW TIME STEP     1 STRESS PERIOD     1
      4 TOTAL ITERATIONS
     1 CALLS TO GCG PACKAGE FOR TRANSPORT TIME STEP   461 IN FLOW TIME STEP     1 STRESS PERIOD     1
      3 TOTAL ITERATIONS



 >>>>>>>>>>>>>>>>>>>>>>>>>>>>>>>>>>>>>>>>>>>>>>>>>>>>>>>FOR COMPONENT NO. 01<<<<<<<<<<<<<<<<<<<<<<<<<<<<<<<<<<<<<<<<<<<<<<<<<<<<<<<


                                            -------------------------------------------
                                                      TRANSPORT STEP NO.  461
                                            -------------------------------------------

 TOTAL ELAPSED TIME SINCE BEGINNING OF SIMULATION =   8.200000    D   
 .....................................................................

                     CUMULATIVE MASS BUDGETS AT END OF TRANSPORT STEP  461, TIME STEP    1, STRESS PERIOD    1
                     -----------------------------------------------------------------------------------------

                                                             IN                           OUT
                                                      ----------------             ----------------
                               CONSTANT CONCENTRATION:    0.000000                    0.000000    
                                        CONSTANT HEAD:    0.000000                  -0.4615976E-03
                                                WELLS:   0.5060555E-02                0.000000    
                               MASS STOR (FLOW MODEL):    0.000000                    0.000000    
                                MASS STORAGE (SOLUTE):   0.1753312E-06              -0.4599157E-02
                            ---------------------------------------------------------------------------
                                              [TOTAL]:   0.5060731E-02 KG           -0.5060754E-02 KG  

                                                          NET (IN - OUT):  -0.2374873E-07
                                                   DISCREPANCY (PERCENT):  -0.4692735E-03
     1 CALLS TO GCG PACKAGE FOR TRANSPORT TIME STEP   462 IN FLOW TIME STEP     1 STRESS PERIOD     1
      4 TOTAL ITERATIONS
     1 CALLS TO GCG PACKAGE FOR TRANSPORT TIME STEP   463 IN FLOW TIME STEP     1 STRESS PERIOD     1
      4 TOTAL ITERATIONS
     1 CALLS TO GCG PACKAGE FOR TRANSPORT TIME STEP   464 IN FLOW TIME STEP     1 STRESS PERIOD     1
      4 TOTAL ITERATIONS
     1 CALLS TO GCG PACKAGE FOR TRANSPORT TIME STEP   465 IN FLOW TIME STEP     1 STRESS PERIOD     1
      4 TOTAL ITERATIONS
     1 CALLS TO GCG PACKAGE FOR TRANSPORT TIME STEP   466 IN FLOW TIME STEP     1 STRESS PERIOD     1
      4 TOTAL ITERATIONS
     1 CALLS TO GCG PACKAGE FOR TRANSPORT TIME STEP   467 IN FLOW TIME STEP     1 STRESS PERIOD     1
      4 TOTAL ITERATIONS
     1 CALLS TO GCG PACKAGE FOR TRANSPORT TIME STEP   468 IN FLOW TIME STEP     1 STRESS PERIOD     1
      4 TOTAL ITERATIONS
     1 CALLS TO GCG PACKAGE FOR TRANSPORT TIME STEP   469 IN FLOW TIME STEP     1 STRESS PERIOD     1
      4 TOTAL ITERATIONS
     1 CALLS TO GCG PACKAGE FOR TRANSPORT TIME STEP   470 IN FLOW TIME STEP     1 STRESS PERIOD     1
      4 TOTAL ITERATIONS
     1 CALLS TO GCG PACKAGE FOR TRANSPORT TIME STEP   471 IN FLOW TIME STEP     1 STRESS PERIOD     1
      4 TOTAL ITERATIONS
     1 CALLS TO GCG PACKAGE FOR TRANSPORT TIME STEP   472 IN FLOW TIME STEP     1 STRESS PERIOD     1
      4 TOTAL ITERATIONS
     1 CALLS TO GCG PACKAGE FOR TRANSPORT TIME STEP   473 IN FLOW TIME STEP     1 STRESS PERIOD     1
      4 TOTAL ITERATIONS
     1 CALLS TO GCG PACKAGE FOR TRANSPORT TIME STEP   474 IN FLOW TIME STEP     1 STRESS PERIOD     1
      4 TOTAL ITERATIONS
     1 CALLS TO GCG PACKAGE FOR TRANSPORT TIME STEP   475 IN FLOW TIME STEP     1 STRESS PERIOD     1
      4 TOTAL ITERATIONS
     1 CALLS TO GCG PACKAGE FOR TRANSPORT TIME STEP   476 IN FLOW TIME STEP     1 STRESS PERIOD     1
      4 TOTAL ITERATIONS
     1 CALLS TO GCG PACKAGE FOR TRANSPORT TIME STEP   477 IN FLOW TIME STEP     1 STRESS PERIOD     1
      4 TOTAL ITERATIONS
     1 CALLS TO GCG PACKAGE FOR TRANSPORT TIME STEP   478 IN FLOW TIME STEP     1 STRESS PERIOD     1
      4 TOTAL ITERATIONS
     1 CALLS TO GCG PACKAGE FOR TRANSPORT TIME STEP   479 IN FLOW TIME STEP     1 STRESS PERIOD     1
      4 TOTAL ITERATIONS
     1 CALLS TO GCG PACKAGE FOR TRANSPORT TIME STEP   480 IN FLOW TIME STEP     1 STRESS PERIOD     1
      4 TOTAL ITERATIONS
     1 CALLS TO GCG PACKAGE FOR TRANSPORT TIME STEP   481 IN FLOW TIME STEP     1 STRESS PERIOD     1
      4 TOTAL ITERATIONS
     1 CALLS TO GCG PACKAGE FOR TRANSPORT TIME STEP   482 IN FLOW TIME STEP     1 STRESS PERIOD     1
      4 TOTAL ITERATIONS
     1 CALLS TO GCG PACKAGE FOR TRANSPORT TIME STEP   483 IN FLOW TIME STEP     1 STRESS PERIOD     1
      4 TOTAL ITERATIONS
     1 CALLS TO GCG PACKAGE FOR TRANSPORT TIME STEP   484 IN FLOW TIME STEP     1 STRESS PERIOD     1
      4 TOTAL ITERATIONS
     1 CALLS TO GCG PACKAGE FOR TRANSPORT TIME STEP   485 IN FLOW TIME STEP     1 STRESS PERIOD     1
      4 TOTAL ITERATIONS
     1 CALLS TO GCG PACKAGE FOR TRANSPORT TIME STEP   486 IN FLOW TIME STEP     1 STRESS PERIOD     1
      4 TOTAL ITERATIONS
     1 CALLS TO GCG PACKAGE FOR TRANSPORT TIME STEP   487 IN FLOW TIME STEP     1 STRESS PERIOD     1
      4 TOTAL ITERATIONS
     1 CALLS TO GCG PACKAGE FOR TRANSPORT TIME STEP   488 IN FLOW TIME STEP     1 STRESS PERIOD     1
      4 TOTAL ITERATIONS
     1 CALLS TO GCG PACKAGE FOR TRANSPORT TIME STEP   489 IN FLOW TIME STEP     1 STRESS PERIOD     1
      4 TOTAL ITERATIONS
     1 CALLS TO GCG PACKAGE FOR TRANSPORT TIME STEP   490 IN FLOW TIME STEP     1 STRESS PERIOD     1
      4 TOTAL ITERATIONS
     1 CALLS TO GCG PACKAGE FOR TRANSPORT TIME STEP   491 IN FLOW TIME STEP     1 STRESS PERIOD     1
      4 TOTAL ITERATIONS
     1 CALLS TO GCG PACKAGE FOR TRANSPORT TIME STEP   492 IN FLOW TIME STEP     1 STRESS PERIOD     1
      4 TOTAL ITERATIONS
     1 CALLS TO GCG PACKAGE FOR TRANSPORT TIME STEP   493 IN FLOW TIME STEP     1 STRESS PERIOD     1
      4 TOTAL ITERATIONS
     1 CALLS TO GCG PACKAGE FOR TRANSPORT TIME STEP   494 IN FLOW TIME STEP     1 STRESS PERIOD     1
      4 TOTAL ITERATIONS
     1 CALLS TO GCG PACKAGE FOR TRANSPORT TIME STEP   495 IN FLOW TIME STEP     1 STRESS PERIOD     1
      4 TOTAL ITERATIONS
     1 CALLS TO GCG PACKAGE FOR TRANSPORT TIME STEP   496 IN FLOW TIME STEP     1 STRESS PERIOD     1
      4 TOTAL ITERATIONS
     1 CALLS TO GCG PACKAGE FOR TRANSPORT TIME STEP   497 IN FLOW TIME STEP     1 STRESS PERIOD     1
      4 TOTAL ITERATIONS
     1 CALLS TO GCG PACKAGE FOR TRANSPORT TIME STEP   498 IN FLOW TIME STEP     1 STRESS PERIOD     1
      4 TOTAL ITERATIONS
     1 CALLS TO GCG PACKAGE FOR TRANSPORT TIME STEP   499 IN FLOW TIME STEP     1 STRESS PERIOD     1
      4 TOTAL ITERATIONS
     1 CALLS TO GCG PACKAGE FOR TRANSPORT TIME STEP   500 IN FLOW TIME STEP     1 STRESS PERIOD     1
      4 TOTAL ITERATIONS
     1 CALLS TO GCG PACKAGE FOR TRANSPORT TIME STEP   501 IN FLOW TIME STEP     1 STRESS PERIOD     1
      4 TOTAL ITERATIONS
     1 CALLS TO GCG PACKAGE FOR TRANSPORT TIME STEP   502 IN FLOW TIME STEP     1 STRESS PERIOD     1
      4 TOTAL ITERATIONS
     1 CALLS TO GCG PACKAGE FOR TRANSPORT TIME STEP   503 IN FLOW TIME STEP     1 STRESS PERIOD     1
      4 TOTAL ITERATIONS
     1 CALLS TO GCG PACKAGE FOR TRANSPORT TIME STEP   504 IN FLOW TIME STEP     1 STRESS PERIOD     1
      4 TOTAL ITERATIONS
     1 CALLS TO GCG PACKAGE FOR TRANSPORT TIME STEP   505 IN FLOW TIME STEP     1 STRESS PERIOD     1
      4 TOTAL ITERATIONS
     1 CALLS TO GCG PACKAGE FOR TRANSPORT TIME STEP   506 IN FLOW TIME STEP     1 STRESS PERIOD     1
      4 TOTAL ITERATIONS
     1 CALLS TO GCG PACKAGE FOR TRANSPORT TIME STEP   507 IN FLOW TIME STEP     1 STRESS PERIOD     1
      3 TOTAL ITERATIONS



 >>>>>>>>>>>>>>>>>>>>>>>>>>>>>>>>>>>>>>>>>>>>>>>>>>>>>>>FOR COMPONENT NO. 01<<<<<<<<<<<<<<<<<<<<<<<<<<<<<<<<<<<<<<<<<<<<<<<<<<<<<<<


                                            -------------------------------------------
                                                      TRANSPORT STEP NO.  507
                                            -------------------------------------------

 TOTAL ELAPSED TIME SINCE BEGINNING OF SIMULATION =   9.020000    D   
 .....................................................................

                     CUMULATIVE MASS BUDGETS AT END OF TRANSPORT STEP  507, TIME STEP    1, STRESS PERIOD    1
                     -----------------------------------------------------------------------------------------

                                                             IN                           OUT
                                                      ----------------             ----------------
                               CONSTANT CONCENTRATION:    0.000000                    0.000000    
                                        CONSTANT HEAD:    0.000000                  -0.8135011E-03
                                                WELLS:   0.5566608E-02                0.000000    
                               MASS STOR (FLOW MODEL):    0.000000                    0.000000    
                                MASS STORAGE (SOLUTE):   0.2035007E-06              -0.4753340E-02
                            ---------------------------------------------------------------------------
                                              [TOTAL]:   0.5566811E-02 KG           -0.5566841E-02 KG  

                                                          NET (IN - OUT):  -0.2980232E-07
                                                   DISCREPANCY (PERCENT):  -0.5353557E-03
     1 CALLS TO GCG PACKAGE FOR TRANSPORT TIME STEP   508 IN FLOW TIME STEP     1 STRESS PERIOD     1
      4 TOTAL ITERATIONS
     1 CALLS TO GCG PACKAGE FOR TRANSPORT TIME STEP   509 IN FLOW TIME STEP     1 STRESS PERIOD     1
      4 TOTAL ITERATIONS
     1 CALLS TO GCG PACKAGE FOR TRANSPORT TIME STEP   510 IN FLOW TIME STEP     1 STRESS PERIOD     1
      4 TOTAL ITERATIONS
     1 CALLS TO GCG PACKAGE FOR TRANSPORT TIME STEP   511 IN FLOW TIME STEP     1 STRESS PERIOD     1
      4 TOTAL ITERATIONS
     1 CALLS TO GCG PACKAGE FOR TRANSPORT TIME STEP   512 IN FLOW TIME STEP     1 STRESS PERIOD     1
      4 TOTAL ITERATIONS
     1 CALLS TO GCG PACKAGE FOR TRANSPORT TIME STEP   513 IN FLOW TIME STEP     1 STRESS PERIOD     1
      4 TOTAL ITERATIONS
     1 CALLS TO GCG PACKAGE FOR TRANSPORT TIME STEP   514 IN FLOW TIME STEP     1 STRESS PERIOD     1
      4 TOTAL ITERATIONS
     1 CALLS TO GCG PACKAGE FOR TRANSPORT TIME STEP   515 IN FLOW TIME STEP     1 STRESS PERIOD     1
      4 TOTAL ITERATIONS
     1 CALLS TO GCG PACKAGE FOR TRANSPORT TIME STEP   516 IN FLOW TIME STEP     1 STRESS PERIOD     1
      4 TOTAL ITERATIONS
     1 CALLS TO GCG PACKAGE FOR TRANSPORT TIME STEP   517 IN FLOW TIME STEP     1 STRESS PERIOD     1
      4 TOTAL ITERATIONS
     1 CALLS TO GCG PACKAGE FOR TRANSPORT TIME STEP   518 IN FLOW TIME STEP     1 STRESS PERIOD     1
      4 TOTAL ITERATIONS
     1 CALLS TO GCG PACKAGE FOR TRANSPORT TIME STEP   519 IN FLOW TIME STEP     1 STRESS PERIOD     1
      4 TOTAL ITERATIONS
     1 CALLS TO GCG PACKAGE FOR TRANSPORT TIME STEP   520 IN FLOW TIME STEP     1 STRESS PERIOD     1
      4 TOTAL ITERATIONS
     1 CALLS TO GCG PACKAGE FOR TRANSPORT TIME STEP   521 IN FLOW TIME STEP     1 STRESS PERIOD     1
      4 TOTAL ITERATIONS
     1 CALLS TO GCG PACKAGE FOR TRANSPORT TIME STEP   522 IN FLOW TIME STEP     1 STRESS PERIOD     1
      4 TOTAL ITERATIONS
     1 CALLS TO GCG PACKAGE FOR TRANSPORT TIME STEP   523 IN FLOW TIME STEP     1 STRESS PERIOD     1
      4 TOTAL ITERATIONS
     1 CALLS TO GCG PACKAGE FOR TRANSPORT TIME STEP   524 IN FLOW TIME STEP     1 STRESS PERIOD     1
      4 TOTAL ITERATIONS
     1 CALLS TO GCG PACKAGE FOR TRANSPORT TIME STEP   525 IN FLOW TIME STEP     1 STRESS PERIOD     1
      4 TOTAL ITERATIONS
     1 CALLS TO GCG PACKAGE FOR TRANSPORT TIME STEP   526 IN FLOW TIME STEP     1 STRESS PERIOD     1
      4 TOTAL ITERATIONS
     1 CALLS TO GCG PACKAGE FOR TRANSPORT TIME STEP   527 IN FLOW TIME STEP     1 STRESS PERIOD     1
      4 TOTAL ITERATIONS
     1 CALLS TO GCG PACKAGE FOR TRANSPORT TIME STEP   528 IN FLOW TIME STEP     1 STRESS PERIOD     1
      4 TOTAL ITERATIONS
     1 CALLS TO GCG PACKAGE FOR TRANSPORT TIME STEP   529 IN FLOW TIME STEP     1 STRESS PERIOD     1
      4 TOTAL ITERATIONS
     1 CALLS TO GCG PACKAGE FOR TRANSPORT TIME STEP   530 IN FLOW TIME STEP     1 STRESS PERIOD     1
      4 TOTAL ITERATIONS
     1 CALLS TO GCG PACKAGE FOR TRANSPORT TIME STEP   531 IN FLOW TIME STEP     1 STRESS PERIOD     1
      4 TOTAL ITERATIONS
     1 CALLS TO GCG PACKAGE FOR TRANSPORT TIME STEP   532 IN FLOW TIME STEP     1 STRESS PERIOD     1
      4 TOTAL ITERATIONS
     1 CALLS TO GCG PACKAGE FOR TRANSPORT TIME STEP   533 IN FLOW TIME STEP     1 STRESS PERIOD     1
      4 TOTAL ITERATIONS
     1 CALLS TO GCG PACKAGE FOR TRANSPORT TIME STEP   534 IN FLOW TIME STEP     1 STRESS PERIOD     1
      4 TOTAL ITERATIONS
     1 CALLS TO GCG PACKAGE FOR TRANSPORT TIME STEP   535 IN FLOW TIME STEP     1 STRESS PERIOD     1
      4 TOTAL ITERATIONS
     1 CALLS TO GCG PACKAGE FOR TRANSPORT TIME STEP   536 IN FLOW TIME STEP     1 STRESS PERIOD     1
      4 TOTAL ITERATIONS
     1 CALLS TO GCG PACKAGE FOR TRANSPORT TIME STEP   537 IN FLOW TIME STEP     1 STRESS PERIOD     1
      4 TOTAL ITERATIONS
     1 CALLS TO GCG PACKAGE FOR TRANSPORT TIME STEP   538 IN FLOW TIME STEP     1 STRESS PERIOD     1
      4 TOTAL ITERATIONS
     1 CALLS TO GCG PACKAGE FOR TRANSPORT TIME STEP   539 IN FLOW TIME STEP     1 STRESS PERIOD     1
      4 TOTAL ITERATIONS
     1 CALLS TO GCG PACKAGE FOR TRANSPORT TIME STEP   540 IN FLOW TIME STEP     1 STRESS PERIOD     1
      4 TOTAL ITERATIONS
     1 CALLS TO GCG PACKAGE FOR TRANSPORT TIME STEP   541 IN FLOW TIME STEP     1 STRESS PERIOD     1
      4 TOTAL ITERATIONS
     1 CALLS TO GCG PACKAGE FOR TRANSPORT TIME STEP   542 IN FLOW TIME STEP     1 STRESS PERIOD     1
      4 TOTAL ITERATIONS
     1 CALLS TO GCG PACKAGE FOR TRANSPORT TIME STEP   543 IN FLOW TIME STEP     1 STRESS PERIOD     1
      4 TOTAL ITERATIONS
     1 CALLS TO GCG PACKAGE FOR TRANSPORT TIME STEP   544 IN FLOW TIME STEP     1 STRESS PERIOD     1
      4 TOTAL ITERATIONS
     1 CALLS TO GCG PACKAGE FOR TRANSPORT TIME STEP   545 IN FLOW TIME STEP     1 STRESS PERIOD     1
      4 TOTAL ITERATIONS
     1 CALLS TO GCG PACKAGE FOR TRANSPORT TIME STEP   546 IN FLOW TIME STEP     1 STRESS PERIOD     1
      4 TOTAL ITERATIONS
     1 CALLS TO GCG PACKAGE FOR TRANSPORT TIME STEP   547 IN FLOW TIME STEP     1 STRESS PERIOD     1
      4 TOTAL ITERATIONS
     1 CALLS TO GCG PACKAGE FOR TRANSPORT TIME STEP   548 IN FLOW TIME STEP     1 STRESS PERIOD     1
      4 TOTAL ITERATIONS
     1 CALLS TO GCG PACKAGE FOR TRANSPORT TIME STEP   549 IN FLOW TIME STEP     1 STRESS PERIOD     1
      4 TOTAL ITERATIONS
     1 CALLS TO GCG PACKAGE FOR TRANSPORT TIME STEP   550 IN FLOW TIME STEP     1 STRESS PERIOD     1
      4 TOTAL ITERATIONS
     1 CALLS TO GCG PACKAGE FOR TRANSPORT TIME STEP   551 IN FLOW TIME STEP     1 STRESS PERIOD     1
      4 TOTAL ITERATIONS
     1 CALLS TO GCG PACKAGE FOR TRANSPORT TIME STEP   552 IN FLOW TIME STEP     1 STRESS PERIOD     1
      4 TOTAL ITERATIONS
     1 CALLS TO GCG PACKAGE FOR TRANSPORT TIME STEP   553 IN FLOW TIME STEP     1 STRESS PERIOD     1
      3 TOTAL ITERATIONS



 >>>>>>>>>>>>>>>>>>>>>>>>>>>>>>>>>>>>>>>>>>>>>>>>>>>>>>>FOR COMPONENT NO. 01<<<<<<<<<<<<<<<<<<<<<<<<<<<<<<<<<<<<<<<<<<<<<<<<<<<<<<<


                                            -------------------------------------------
                                                      TRANSPORT STEP NO.  553
                                            -------------------------------------------

 TOTAL ELAPSED TIME SINCE BEGINNING OF SIMULATION =   9.840000    D   
 .....................................................................

                     CUMULATIVE MASS BUDGETS AT END OF TRANSPORT STEP  553, TIME STEP    1, STRESS PERIOD    1
                     -----------------------------------------------------------------------------------------

                                                             IN                           OUT
                                                      ----------------             ----------------
                               CONSTANT CONCENTRATION:    0.000000                    0.000000    
                                        CONSTANT HEAD:    0.000000                  -0.1212547E-02
                                                WELLS:   0.6072660E-02                0.000000    
                               MASS STOR (FLOW MODEL):    0.000000                    0.000000    
                                MASS STORAGE (SOLUTE):   0.2324082E-06              -0.4860383E-02
                            ---------------------------------------------------------------------------
                                              [TOTAL]:   0.6072892E-02 KG           -0.6072930E-02 KG  

                                                          NET (IN - OUT):  -0.3725290E-07
                                                   DISCREPANCY (PERCENT):  -0.6134274E-03
     1 CALLS TO GCG PACKAGE FOR TRANSPORT TIME STEP   554 IN FLOW TIME STEP     1 STRESS PERIOD     1
      4 TOTAL ITERATIONS
     1 CALLS TO GCG PACKAGE FOR TRANSPORT TIME STEP   555 IN FLOW TIME STEP     1 STRESS PERIOD     1
      4 TOTAL ITERATIONS
     1 CALLS TO GCG PACKAGE FOR TRANSPORT TIME STEP   556 IN FLOW TIME STEP     1 STRESS PERIOD     1
      4 TOTAL ITERATIONS
     1 CALLS TO GCG PACKAGE FOR TRANSPORT TIME STEP   557 IN FLOW TIME STEP     1 STRESS PERIOD     1
      4 TOTAL ITERATIONS
     1 CALLS TO GCG PACKAGE FOR TRANSPORT TIME STEP   558 IN FLOW TIME STEP     1 STRESS PERIOD     1
      4 TOTAL ITERATIONS
     1 CALLS TO GCG PACKAGE FOR TRANSPORT TIME STEP   559 IN FLOW TIME STEP     1 STRESS PERIOD     1
      4 TOTAL ITERATIONS
     1 CALLS TO GCG PACKAGE FOR TRANSPORT TIME STEP   560 IN FLOW TIME STEP     1 STRESS PERIOD     1
      4 TOTAL ITERATIONS
     1 CALLS TO GCG PACKAGE FOR TRANSPORT TIME STEP   561 IN FLOW TIME STEP     1 STRESS PERIOD     1
      4 TOTAL ITERATIONS
     1 CALLS TO GCG PACKAGE FOR TRANSPORT TIME STEP   562 IN FLOW TIME STEP     1 STRESS PERIOD     1
      4 TOTAL ITERATIONS
  MAXIMUM CONCENTRATION CHANGES FOR EACH ITERATION:
  MAX. CHANGE LAYER,ROW,COL MAX. CHANGE LAYER,ROW,COL MAX. CHANGE LAYER,ROW,COL MAX. CHANGE LAYER,ROW,COL MAX. CHANGE LAYER,ROW,COL
 ------------------------------------------------------------------------------------------------------------------------------------
   0.2047     (  2,  1,120)  0.1695E-02 ( 40,  1,120)  0.1383E-04 ( 11,  1, 15)  0.4768E-06 ( 11,  1, 15)



 >>>>>>>>>>>>>>>>>>>>>>>>>>>>>>>>>>>>>>>>>>>>>>>>>>>>>>>FOR COMPONENT NO. 01<<<<<<<<<<<<<<<<<<<<<<<<<<<<<<<<<<<<<<<<<<<<<<<<<<<<<<<


                                            -------------------------------------------
                                                      TRANSPORT STEP NO.  562
                                            -------------------------------------------

 TOTAL ELAPSED TIME SINCE BEGINNING OF SIMULATION =   10.00000    D   
 .....................................................................

                     CUMULATIVE MASS BUDGETS AT END OF TRANSPORT STEP  562, TIME STEP    1, STRESS PERIOD    1
                     -----------------------------------------------------------------------------------------

                                                             IN                           OUT
                                                      ----------------             ----------------
                               CONSTANT CONCENTRATION:    0.000000                    0.000000    
                                        CONSTANT HEAD:    0.000000                  -0.1293428E-02
                                                WELLS:   0.6171402E-02                0.000000    
                               MASS STOR (FLOW MODEL):    0.000000                    0.000000    
                                MASS STORAGE (SOLUTE):   0.2466246E-06              -0.4878259E-02
                            ---------------------------------------------------------------------------
                                              [TOTAL]:   0.6171649E-02 KG           -0.6171687E-02 KG  

                                                          NET (IN - OUT):  -0.3818423E-07
                                                   DISCREPANCY (PERCENT):  -0.6187019E-03


                                   ++++++++++++++++++++++++++++++++++++++++++++++++++++++++++++++
                                                       STRESS PERIOD NO.  002
                                   ++++++++++++++++++++++++++++++++++++++++++++++++++++++++++++++


 LENGTH OF CURRENT STRESS PERIOD =   22.00000    
 NUMBER OF TIME STEPS FOR CURRENT STRESS PERIOD =    1
 TIME STEP MULTIPLIER USED IN FLOW SOLUTION =   1.000000    

 ***Type of Transport Simulation is TRANSIENT

 USER-SPECIFIED TRANSPORT STEPSIZE =   0.000000    D   
 MAXIMUM NUMBER OF TRANSPORT STEPS ALLOWED  IN ONE FLOW TIME STEP =     50000
 MULTIPLIER FOR SUCCESSIVE TRANSPORT STEPS  [USED IN IMPLICIT SCHEMES] =     1.000
 MAXIMUM TRANSPORT STEP SIZE  [USED IN IMPLICIT SCHEMES] =   0.000000    D   

 POINT SINKS/SOURCES OF SPECIFIED CONCENTRATION REUSED FROM LAST STRESS PERIOD


                                          ================================================
                                                         TIME STEP NO.  001
                                          ================================================

 FROM TIME =   10.000     TO    32.000    


                    "THKSAT          " FLOW TERMS FOR TIME STEP  1, STRESS PERIOD  2 READ UNFORMATTED ON UNIT 10
                    --------------------------------------------------------------------------------------------

                    "QXX             " FLOW TERMS FOR TIME STEP  1, STRESS PERIOD  2 READ UNFORMATTED ON UNIT 10
                    --------------------------------------------------------------------------------------------

                    "QZZ             " FLOW TERMS FOR TIME STEP  1, STRESS PERIOD  2 READ UNFORMATTED ON UNIT 10
                    --------------------------------------------------------------------------------------------

 MAXIMUM STEPSIZE DURING WHICH ANY PARTICLE CANNOT MOVE MORE THAN ONE CELL
 = 0.3069E-01(WHEN MIN. R.F.=1)  AT K=  10, I=   1, J=  16

 MAXIMUM STEPSIZE WHICH MEETS STABILITY CRITERION OF THE ADVECTION TERM
 (FOR PURE FINITE-DIFFERENCE OPTION, MIXELM=0) 
 = 0.2409E-01(WHEN MIN. R.F.=1)  AT K=  10, I=   1, J=  15

                    "CNH             " FLOW TERMS FOR TIME STEP  1, STRESS PERIOD  2 READ UNFORMATTED ON UNIT 10
                    --------------------------------------------------------------------------------------------

                    "WEL             " FLOW TERMS FOR TIME STEP  1, STRESS PERIOD  2 READ UNFORMATTED ON UNIT 10
                    --------------------------------------------------------------------------------------------


 TOTAL NUMBER OF POINT SOURCES/SINKS PRESENT IN THE FLOW MODEL =    80

 MAXIMUM STEPSIZE WHICH MEETS STABILITY CRITERION OF THE SINK & SOURCE TERM
 = 0.7778E-01(WHEN MIN. R.F.=1)  AT K=  16, I=   1, J=   1

 MAXIMUM STEPSIZE WHICH MEETS STABILITY CRITERION OF THE DISPERSION TERM
 = 0.1229E-01(WHEN MIN. R.F.=1)  AT K=  10, I=   1, J=  15


     1 CALLS TO GCG PACKAGE FOR TRANSPORT TIME STEP     1 IN FLOW TIME STEP     1 STRESS PERIOD     2
      4 TOTAL ITERATIONS
     1 CALLS TO GCG PACKAGE FOR TRANSPORT TIME STEP     2 IN FLOW TIME STEP     1 STRESS PERIOD     2
      4 TOTAL ITERATIONS
     1 CALLS TO GCG PACKAGE FOR TRANSPORT TIME STEP     3 IN FLOW TIME STEP     1 STRESS PERIOD     2
      4 TOTAL ITERATIONS
     1 CALLS TO GCG PACKAGE FOR TRANSPORT TIME STEP     4 IN FLOW TIME STEP     1 STRESS PERIOD     2
      4 TOTAL ITERATIONS
     1 CALLS TO GCG PACKAGE FOR TRANSPORT TIME STEP     5 IN FLOW TIME STEP     1 STRESS PERIOD     2
      4 TOTAL ITERATIONS
     1 CALLS TO GCG PACKAGE FOR TRANSPORT TIME STEP     6 IN FLOW TIME STEP     1 STRESS PERIOD     2
      4 TOTAL ITERATIONS
     1 CALLS TO GCG PACKAGE FOR TRANSPORT TIME STEP     7 IN FLOW TIME STEP     1 STRESS PERIOD     2
      4 TOTAL ITERATIONS
     1 CALLS TO GCG PACKAGE FOR TRANSPORT TIME STEP     8 IN FLOW TIME STEP     1 STRESS PERIOD     2
      4 TOTAL ITERATIONS
     1 CALLS TO GCG PACKAGE FOR TRANSPORT TIME STEP     9 IN FLOW TIME STEP     1 STRESS PERIOD     2
      4 TOTAL ITERATIONS
     1 CALLS TO GCG PACKAGE FOR TRANSPORT TIME STEP    10 IN FLOW TIME STEP     1 STRESS PERIOD     2
      4 TOTAL ITERATIONS
     1 CALLS TO GCG PACKAGE FOR TRANSPORT TIME STEP    11 IN FLOW TIME STEP     1 STRESS PERIOD     2
      4 TOTAL ITERATIONS
     1 CALLS TO GCG PACKAGE FOR TRANSPORT TIME STEP    12 IN FLOW TIME STEP     1 STRESS PERIOD     2
      4 TOTAL ITERATIONS
     1 CALLS TO GCG PACKAGE FOR TRANSPORT TIME STEP    13 IN FLOW TIME STEP     1 STRESS PERIOD     2
      4 TOTAL ITERATIONS
     1 CALLS TO GCG PACKAGE FOR TRANSPORT TIME STEP    14 IN FLOW TIME STEP     1 STRESS PERIOD     2
      4 TOTAL ITERATIONS
     1 CALLS TO GCG PACKAGE FOR TRANSPORT TIME STEP    15 IN FLOW TIME STEP     1 STRESS PERIOD     2
      4 TOTAL ITERATIONS
     1 CALLS TO GCG PACKAGE FOR TRANSPORT TIME STEP    16 IN FLOW TIME STEP     1 STRESS PERIOD     2
      4 TOTAL ITERATIONS
     1 CALLS TO GCG PACKAGE FOR TRANSPORT TIME STEP    17 IN FLOW TIME STEP     1 STRESS PERIOD     2
      4 TOTAL ITERATIONS
     1 CALLS TO GCG PACKAGE FOR TRANSPORT TIME STEP    18 IN FLOW TIME STEP     1 STRESS PERIOD     2
      4 TOTAL ITERATIONS
     1 CALLS TO GCG PACKAGE FOR TRANSPORT TIME STEP    19 IN FLOW TIME STEP     1 STRESS PERIOD     2
      4 TOTAL ITERATIONS
     1 CALLS TO GCG PACKAGE FOR TRANSPORT TIME STEP    20 IN FLOW TIME STEP     1 STRESS PERIOD     2
      4 TOTAL ITERATIONS
     1 CALLS TO GCG PACKAGE FOR TRANSPORT TIME STEP    21 IN FLOW TIME STEP     1 STRESS PERIOD     2
      4 TOTAL ITERATIONS
     1 CALLS TO GCG PACKAGE FOR TRANSPORT TIME STEP    22 IN FLOW TIME STEP     1 STRESS PERIOD     2
      4 TOTAL ITERATIONS
     1 CALLS TO GCG PACKAGE FOR TRANSPORT TIME STEP    23 IN FLOW TIME STEP     1 STRESS PERIOD     2
      4 TOTAL ITERATIONS
     1 CALLS TO GCG PACKAGE FOR TRANSPORT TIME STEP    24 IN FLOW TIME STEP     1 STRESS PERIOD     2
      4 TOTAL ITERATIONS
     1 CALLS TO GCG PACKAGE FOR TRANSPORT TIME STEP    25 IN FLOW TIME STEP     1 STRESS PERIOD     2
      4 TOTAL ITERATIONS
     1 CALLS TO GCG PACKAGE FOR TRANSPORT TIME STEP    26 IN FLOW TIME STEP     1 STRESS PERIOD     2
      4 TOTAL ITERATIONS
     1 CALLS TO GCG PACKAGE FOR TRANSPORT TIME STEP    27 IN FLOW TIME STEP     1 STRESS PERIOD     2
      4 TOTAL ITERATIONS
     1 CALLS TO GCG PACKAGE FOR TRANSPORT TIME STEP    28 IN FLOW TIME STEP     1 STRESS PERIOD     2
      4 TOTAL ITERATIONS
     1 CALLS TO GCG PACKAGE FOR TRANSPORT TIME STEP    29 IN FLOW TIME STEP     1 STRESS PERIOD     2
      4 TOTAL ITERATIONS
     1 CALLS TO GCG PACKAGE FOR TRANSPORT TIME STEP    30 IN FLOW TIME STEP     1 STRESS PERIOD     2
      4 TOTAL ITERATIONS
     1 CALLS TO GCG PACKAGE FOR TRANSPORT TIME STEP    31 IN FLOW TIME STEP     1 STRESS PERIOD     2
      4 TOTAL ITERATIONS
     1 CALLS TO GCG PACKAGE FOR TRANSPORT TIME STEP    32 IN FLOW TIME STEP     1 STRESS PERIOD     2
      4 TOTAL ITERATIONS
     1 CALLS TO GCG PACKAGE FOR TRANSPORT TIME STEP    33 IN FLOW TIME STEP     1 STRESS PERIOD     2
      4 TOTAL ITERATIONS
     1 CALLS TO GCG PACKAGE FOR TRANSPORT TIME STEP    34 IN FLOW TIME STEP     1 STRESS PERIOD     2
      4 TOTAL ITERATIONS
     1 CALLS TO GCG PACKAGE FOR TRANSPORT TIME STEP    35 IN FLOW TIME STEP     1 STRESS PERIOD     2
      4 TOTAL ITERATIONS
     1 CALLS TO GCG PACKAGE FOR TRANSPORT TIME STEP    36 IN FLOW TIME STEP     1 STRESS PERIOD     2
      4 TOTAL ITERATIONS
     1 CALLS TO GCG PACKAGE FOR TRANSPORT TIME STEP    37 IN FLOW TIME STEP     1 STRESS PERIOD     2
      3 TOTAL ITERATIONS



 >>>>>>>>>>>>>>>>>>>>>>>>>>>>>>>>>>>>>>>>>>>>>>>>>>>>>>>FOR COMPONENT NO. 01<<<<<<<<<<<<<<<<<<<<<<<<<<<<<<<<<<<<<<<<<<<<<<<<<<<<<<<


                                            -------------------------------------------
                                                      TRANSPORT STEP NO.   37
                                            -------------------------------------------

 TOTAL ELAPSED TIME SINCE BEGINNING OF SIMULATION =   10.66000    D   
 .....................................................................

                     CUMULATIVE MASS BUDGETS AT END OF TRANSPORT STEP   37, TIME STEP    1, STRESS PERIOD    2
                     -----------------------------------------------------------------------------------------

                                                             IN                           OUT
                                                      ----------------             ----------------
                               CONSTANT CONCENTRATION:    0.000000                    0.000000    
                                        CONSTANT HEAD:    0.000000                  -0.1633139E-02
                                                WELLS:   0.6578720E-02                0.000000    
                               MASS STOR (FLOW MODEL):    0.000000                    0.000000    
                                MASS STORAGE (SOLUTE):   0.5804649E-05              -0.4951431E-02
                            ---------------------------------------------------------------------------
                                              [TOTAL]:   0.6584524E-02 KG           -0.6584570E-02 KG  

                                                          NET (IN - OUT):  -0.4610047E-07
                                                   DISCREPANCY (PERCENT):  -0.7001311E-03
     1 CALLS TO GCG PACKAGE FOR TRANSPORT TIME STEP    38 IN FLOW TIME STEP     1 STRESS PERIOD     2
      4 TOTAL ITERATIONS
     1 CALLS TO GCG PACKAGE FOR TRANSPORT TIME STEP    39 IN FLOW TIME STEP     1 STRESS PERIOD     2
      4 TOTAL ITERATIONS
     1 CALLS TO GCG PACKAGE FOR TRANSPORT TIME STEP    40 IN FLOW TIME STEP     1 STRESS PERIOD     2
      4 TOTAL ITERATIONS
     1 CALLS TO GCG PACKAGE FOR TRANSPORT TIME STEP    41 IN FLOW TIME STEP     1 STRESS PERIOD     2
      4 TOTAL ITERATIONS
     1 CALLS TO GCG PACKAGE FOR TRANSPORT TIME STEP    42 IN FLOW TIME STEP     1 STRESS PERIOD     2
      4 TOTAL ITERATIONS
     1 CALLS TO GCG PACKAGE FOR TRANSPORT TIME STEP    43 IN FLOW TIME STEP     1 STRESS PERIOD     2
      4 TOTAL ITERATIONS
     1 CALLS TO GCG PACKAGE FOR TRANSPORT TIME STEP    44 IN FLOW TIME STEP     1 STRESS PERIOD     2
      4 TOTAL ITERATIONS
     1 CALLS TO GCG PACKAGE FOR TRANSPORT TIME STEP    45 IN FLOW TIME STEP     1 STRESS PERIOD     2
      4 TOTAL ITERATIONS
     1 CALLS TO GCG PACKAGE FOR TRANSPORT TIME STEP    46 IN FLOW TIME STEP     1 STRESS PERIOD     2
      4 TOTAL ITERATIONS
     1 CALLS TO GCG PACKAGE FOR TRANSPORT TIME STEP    47 IN FLOW TIME STEP     1 STRESS PERIOD     2
      4 TOTAL ITERATIONS
     1 CALLS TO GCG PACKAGE FOR TRANSPORT TIME STEP    48 IN FLOW TIME STEP     1 STRESS PERIOD     2
      4 TOTAL ITERATIONS
     1 CALLS TO GCG PACKAGE FOR TRANSPORT TIME STEP    49 IN FLOW TIME STEP     1 STRESS PERIOD     2
      4 TOTAL ITERATIONS
     1 CALLS TO GCG PACKAGE FOR TRANSPORT TIME STEP    50 IN FLOW TIME STEP     1 STRESS PERIOD     2
      4 TOTAL ITERATIONS
     1 CALLS TO GCG PACKAGE FOR TRANSPORT TIME STEP    51 IN FLOW TIME STEP     1 STRESS PERIOD     2
      4 TOTAL ITERATIONS
     1 CALLS TO GCG PACKAGE FOR TRANSPORT TIME STEP    52 IN FLOW TIME STEP     1 STRESS PERIOD     2
      4 TOTAL ITERATIONS
     1 CALLS TO GCG PACKAGE FOR TRANSPORT TIME STEP    53 IN FLOW TIME STEP     1 STRESS PERIOD     2
      4 TOTAL ITERATIONS
     1 CALLS TO GCG PACKAGE FOR TRANSPORT TIME STEP    54 IN FLOW TIME STEP     1 STRESS PERIOD     2
      4 TOTAL ITERATIONS
     1 CALLS TO GCG PACKAGE FOR TRANSPORT TIME STEP    55 IN FLOW TIME STEP     1 STRESS PERIOD     2
      4 TOTAL ITERATIONS
     1 CALLS TO GCG PACKAGE FOR TRANSPORT TIME STEP    56 IN FLOW TIME STEP     1 STRESS PERIOD     2
      4 TOTAL ITERATIONS
     1 CALLS TO GCG PACKAGE FOR TRANSPORT TIME STEP    57 IN FLOW TIME STEP     1 STRESS PERIOD     2
      4 TOTAL ITERATIONS
     1 CALLS TO GCG PACKAGE FOR TRANSPORT TIME STEP    58 IN FLOW TIME STEP     1 STRESS PERIOD     2
      4 TOTAL ITERATIONS
     1 CALLS TO GCG PACKAGE FOR TRANSPORT TIME STEP    59 IN FLOW TIME STEP     1 STRESS PERIOD     2
      4 TOTAL ITERATIONS
     1 CALLS TO GCG PACKAGE FOR TRANSPORT TIME STEP    60 IN FLOW TIME STEP     1 STRESS PERIOD     2
      4 TOTAL ITERATIONS
     1 CALLS TO GCG PACKAGE FOR TRANSPORT TIME STEP    61 IN FLOW TIME STEP     1 STRESS PERIOD     2
      4 TOTAL ITERATIONS
     1 CALLS TO GCG PACKAGE FOR TRANSPORT TIME STEP    62 IN FLOW TIME STEP     1 STRESS PERIOD     2
      4 TOTAL ITERATIONS
     1 CALLS TO GCG PACKAGE FOR TRANSPORT TIME STEP    63 IN FLOW TIME STEP     1 STRESS PERIOD     2
      4 TOTAL ITERATIONS
     1 CALLS TO GCG PACKAGE FOR TRANSPORT TIME STEP    64 IN FLOW TIME STEP     1 STRESS PERIOD     2
      4 TOTAL ITERATIONS
     1 CALLS TO GCG PACKAGE FOR TRANSPORT TIME STEP    65 IN FLOW TIME STEP     1 STRESS PERIOD     2
      4 TOTAL ITERATIONS
     1 CALLS TO GCG PACKAGE FOR TRANSPORT TIME STEP    66 IN FLOW TIME STEP     1 STRESS PERIOD     2
      4 TOTAL ITERATIONS
     1 CALLS TO GCG PACKAGE FOR TRANSPORT TIME STEP    67 IN FLOW TIME STEP     1 STRESS PERIOD     2
      4 TOTAL ITERATIONS
     1 CALLS TO GCG PACKAGE FOR TRANSPORT TIME STEP    68 IN FLOW TIME STEP     1 STRESS PERIOD     2
      4 TOTAL ITERATIONS
     1 CALLS TO GCG PACKAGE FOR TRANSPORT TIME STEP    69 IN FLOW TIME STEP     1 STRESS PERIOD     2
      4 TOTAL ITERATIONS
     1 CALLS TO GCG PACKAGE FOR TRANSPORT TIME STEP    70 IN FLOW TIME STEP     1 STRESS PERIOD     2
      4 TOTAL ITERATIONS
     1 CALLS TO GCG PACKAGE FOR TRANSPORT TIME STEP    71 IN FLOW TIME STEP     1 STRESS PERIOD     2
      4 TOTAL ITERATIONS
     1 CALLS TO GCG PACKAGE FOR TRANSPORT TIME STEP    72 IN FLOW TIME STEP     1 STRESS PERIOD     2
      4 TOTAL ITERATIONS
     1 CALLS TO GCG PACKAGE FOR TRANSPORT TIME STEP    73 IN FLOW TIME STEP     1 STRESS PERIOD     2
      4 TOTAL ITERATIONS
     1 CALLS TO GCG PACKAGE FOR TRANSPORT TIME STEP    74 IN FLOW TIME STEP     1 STRESS PERIOD     2
      4 TOTAL ITERATIONS
     1 CALLS TO GCG PACKAGE FOR TRANSPORT TIME STEP    75 IN FLOW TIME STEP     1 STRESS PERIOD     2
      4 TOTAL ITERATIONS
     1 CALLS TO GCG PACKAGE FOR TRANSPORT TIME STEP    76 IN FLOW TIME STEP     1 STRESS PERIOD     2
      4 TOTAL ITERATIONS
     1 CALLS TO GCG PACKAGE FOR TRANSPORT TIME STEP    77 IN FLOW TIME STEP     1 STRESS PERIOD     2
      4 TOTAL ITERATIONS
     1 CALLS TO GCG PACKAGE FOR TRANSPORT TIME STEP    78 IN FLOW TIME STEP     1 STRESS PERIOD     2
      4 TOTAL ITERATIONS
     1 CALLS TO GCG PACKAGE FOR TRANSPORT TIME STEP    79 IN FLOW TIME STEP     1 STRESS PERIOD     2
      4 TOTAL ITERATIONS
     1 CALLS TO GCG PACKAGE FOR TRANSPORT TIME STEP    80 IN FLOW TIME STEP     1 STRESS PERIOD     2
      4 TOTAL ITERATIONS
     1 CALLS TO GCG PACKAGE FOR TRANSPORT TIME STEP    81 IN FLOW TIME STEP     1 STRESS PERIOD     2
      4 TOTAL ITERATIONS
     1 CALLS TO GCG PACKAGE FOR TRANSPORT TIME STEP    82 IN FLOW TIME STEP     1 STRESS PERIOD     2
      4 TOTAL ITERATIONS
     1 CALLS TO GCG PACKAGE FOR TRANSPORT TIME STEP    83 IN FLOW TIME STEP     1 STRESS PERIOD     2
      3 TOTAL ITERATIONS



 >>>>>>>>>>>>>>>>>>>>>>>>>>>>>>>>>>>>>>>>>>>>>>>>>>>>>>>FOR COMPONENT NO. 01<<<<<<<<<<<<<<<<<<<<<<<<<<<<<<<<<<<<<<<<<<<<<<<<<<<<<<<


                                            -------------------------------------------
                                                      TRANSPORT STEP NO.   83
                                            -------------------------------------------

 TOTAL ELAPSED TIME SINCE BEGINNING OF SIMULATION =   11.48000    D   
 .....................................................................

                     CUMULATIVE MASS BUDGETS AT END OF TRANSPORT STEP   83, TIME STEP    1, STRESS PERIOD    2
                     -----------------------------------------------------------------------------------------

                                                             IN                           OUT
                                                      ----------------             ----------------
                               CONSTANT CONCENTRATION:    0.000000                    0.000000    
                                        CONSTANT HEAD:    0.000000                  -0.2064745E-02
                                                WELLS:   0.7084781E-02                0.000000    
                               MASS STOR (FLOW MODEL):    0.000000                    0.000000    
                                MASS STORAGE (SOLUTE):   0.7181949E-05              -0.5027273E-02
                            ---------------------------------------------------------------------------
                                              [TOTAL]:   0.7091963E-02 KG           -0.7092018E-02 KG  

                                                          NET (IN - OUT):  -0.5541369E-07
                                                   DISCREPANCY (PERCENT):  -0.7813560E-03
     1 CALLS TO GCG PACKAGE FOR TRANSPORT TIME STEP    84 IN FLOW TIME STEP     1 STRESS PERIOD     2
      4 TOTAL ITERATIONS
     1 CALLS TO GCG PACKAGE FOR TRANSPORT TIME STEP    85 IN FLOW TIME STEP     1 STRESS PERIOD     2
      4 TOTAL ITERATIONS
     1 CALLS TO GCG PACKAGE FOR TRANSPORT TIME STEP    86 IN FLOW TIME STEP     1 STRESS PERIOD     2
      4 TOTAL ITERATIONS
     1 CALLS TO GCG PACKAGE FOR TRANSPORT TIME STEP    87 IN FLOW TIME STEP     1 STRESS PERIOD     2
      4 TOTAL ITERATIONS
     1 CALLS TO GCG PACKAGE FOR TRANSPORT TIME STEP    88 IN FLOW TIME STEP     1 STRESS PERIOD     2
      4 TOTAL ITERATIONS
     1 CALLS TO GCG PACKAGE FOR TRANSPORT TIME STEP    89 IN FLOW TIME STEP     1 STRESS PERIOD     2
      4 TOTAL ITERATIONS
     1 CALLS TO GCG PACKAGE FOR TRANSPORT TIME STEP    90 IN FLOW TIME STEP     1 STRESS PERIOD     2
      4 TOTAL ITERATIONS
     1 CALLS TO GCG PACKAGE FOR TRANSPORT TIME STEP    91 IN FLOW TIME STEP     1 STRESS PERIOD     2
      4 TOTAL ITERATIONS
     1 CALLS TO GCG PACKAGE FOR TRANSPORT TIME STEP    92 IN FLOW TIME STEP     1 STRESS PERIOD     2
      4 TOTAL ITERATIONS
     1 CALLS TO GCG PACKAGE FOR TRANSPORT TIME STEP    93 IN FLOW TIME STEP     1 STRESS PERIOD     2
      4 TOTAL ITERATIONS
     1 CALLS TO GCG PACKAGE FOR TRANSPORT TIME STEP    94 IN FLOW TIME STEP     1 STRESS PERIOD     2
      4 TOTAL ITERATIONS
     1 CALLS TO GCG PACKAGE FOR TRANSPORT TIME STEP    95 IN FLOW TIME STEP     1 STRESS PERIOD     2
      4 TOTAL ITERATIONS
     1 CALLS TO GCG PACKAGE FOR TRANSPORT TIME STEP    96 IN FLOW TIME STEP     1 STRESS PERIOD     2
      4 TOTAL ITERATIONS
     1 CALLS TO GCG PACKAGE FOR TRANSPORT TIME STEP    97 IN FLOW TIME STEP     1 STRESS PERIOD     2
      4 TOTAL ITERATIONS
     1 CALLS TO GCG PACKAGE FOR TRANSPORT TIME STEP    98 IN FLOW TIME STEP     1 STRESS PERIOD     2
      4 TOTAL ITERATIONS
     1 CALLS TO GCG PACKAGE FOR TRANSPORT TIME STEP    99 IN FLOW TIME STEP     1 STRESS PERIOD     2
      4 TOTAL ITERATIONS
     1 CALLS TO GCG PACKAGE FOR TRANSPORT TIME STEP   100 IN FLOW TIME STEP     1 STRESS PERIOD     2
      4 TOTAL ITERATIONS
     1 CALLS TO GCG PACKAGE FOR TRANSPORT TIME STEP   101 IN FLOW TIME STEP     1 STRESS PERIOD     2
      4 TOTAL ITERATIONS
     1 CALLS TO GCG PACKAGE FOR TRANSPORT TIME STEP   102 IN FLOW TIME STEP     1 STRESS PERIOD     2
      4 TOTAL ITERATIONS
     1 CALLS TO GCG PACKAGE FOR TRANSPORT TIME STEP   103 IN FLOW TIME STEP     1 STRESS PERIOD     2
      4 TOTAL ITERATIONS
     1 CALLS TO GCG PACKAGE FOR TRANSPORT TIME STEP   104 IN FLOW TIME STEP     1 STRESS PERIOD     2
      4 TOTAL ITERATIONS
     1 CALLS TO GCG PACKAGE FOR TRANSPORT TIME STEP   105 IN FLOW TIME STEP     1 STRESS PERIOD     2
      4 TOTAL ITERATIONS
     1 CALLS TO GCG PACKAGE FOR TRANSPORT TIME STEP   106 IN FLOW TIME STEP     1 STRESS PERIOD     2
      4 TOTAL ITERATIONS
     1 CALLS TO GCG PACKAGE FOR TRANSPORT TIME STEP   107 IN FLOW TIME STEP     1 STRESS PERIOD     2
      4 TOTAL ITERATIONS
     1 CALLS TO GCG PACKAGE FOR TRANSPORT TIME STEP   108 IN FLOW TIME STEP     1 STRESS PERIOD     2
      4 TOTAL ITERATIONS
     1 CALLS TO GCG PACKAGE FOR TRANSPORT TIME STEP   109 IN FLOW TIME STEP     1 STRESS PERIOD     2
      4 TOTAL ITERATIONS
     1 CALLS TO GCG PACKAGE FOR TRANSPORT TIME STEP   110 IN FLOW TIME STEP     1 STRESS PERIOD     2
      4 TOTAL ITERATIONS
     1 CALLS TO GCG PACKAGE FOR TRANSPORT TIME STEP   111 IN FLOW TIME STEP     1 STRESS PERIOD     2
      4 TOTAL ITERATIONS
     1 CALLS TO GCG PACKAGE FOR TRANSPORT TIME STEP   112 IN FLOW TIME STEP     1 STRESS PERIOD     2
      4 TOTAL ITERATIONS
     1 CALLS TO GCG PACKAGE FOR TRANSPORT TIME STEP   113 IN FLOW TIME STEP     1 STRESS PERIOD     2
      4 TOTAL ITERATIONS
     1 CALLS TO GCG PACKAGE FOR TRANSPORT TIME STEP   114 IN FLOW TIME STEP     1 STRESS PERIOD     2
      4 TOTAL ITERATIONS
     1 CALLS TO GCG PACKAGE FOR TRANSPORT TIME STEP   115 IN FLOW TIME STEP     1 STRESS PERIOD     2
      4 TOTAL ITERATIONS
     1 CALLS TO GCG PACKAGE FOR TRANSPORT TIME STEP   116 IN FLOW TIME STEP     1 STRESS PERIOD     2
      4 TOTAL ITERATIONS
     1 CALLS TO GCG PACKAGE FOR TRANSPORT TIME STEP   117 IN FLOW TIME STEP     1 STRESS PERIOD     2
      4 TOTAL ITERATIONS
     1 CALLS TO GCG PACKAGE FOR TRANSPORT TIME STEP   118 IN FLOW TIME STEP     1 STRESS PERIOD     2
      4 TOTAL ITERATIONS
     1 CALLS TO GCG PACKAGE FOR TRANSPORT TIME STEP   119 IN FLOW TIME STEP     1 STRESS PERIOD     2
      4 TOTAL ITERATIONS
     1 CALLS TO GCG PACKAGE FOR TRANSPORT TIME STEP   120 IN FLOW TIME STEP     1 STRESS PERIOD     2
      4 TOTAL ITERATIONS
     1 CALLS TO GCG PACKAGE FOR TRANSPORT TIME STEP   121 IN FLOW TIME STEP     1 STRESS PERIOD     2
      4 TOTAL ITERATIONS
     1 CALLS TO GCG PACKAGE FOR TRANSPORT TIME STEP   122 IN FLOW TIME STEP     1 STRESS PERIOD     2
      4 TOTAL ITERATIONS
     1 CALLS TO GCG PACKAGE FOR TRANSPORT TIME STEP   123 IN FLOW TIME STEP     1 STRESS PERIOD     2
      4 TOTAL ITERATIONS
     1 CALLS TO GCG PACKAGE FOR TRANSPORT TIME STEP   124 IN FLOW TIME STEP     1 STRESS PERIOD     2
      4 TOTAL ITERATIONS
     1 CALLS TO GCG PACKAGE FOR TRANSPORT TIME STEP   125 IN FLOW TIME STEP     1 STRESS PERIOD     2
      4 TOTAL ITERATIONS
     1 CALLS TO GCG PACKAGE FOR TRANSPORT TIME STEP   126 IN FLOW TIME STEP     1 STRESS PERIOD     2
      4 TOTAL ITERATIONS
     1 CALLS TO GCG PACKAGE FOR TRANSPORT TIME STEP   127 IN FLOW TIME STEP     1 STRESS PERIOD     2
      4 TOTAL ITERATIONS
     1 CALLS TO GCG PACKAGE FOR TRANSPORT TIME STEP   128 IN FLOW TIME STEP     1 STRESS PERIOD     2
      4 TOTAL ITERATIONS
     1 CALLS TO GCG PACKAGE FOR TRANSPORT TIME STEP   129 IN FLOW TIME STEP     1 STRESS PERIOD     2
      3 TOTAL ITERATIONS



 >>>>>>>>>>>>>>>>>>>>>>>>>>>>>>>>>>>>>>>>>>>>>>>>>>>>>>>FOR COMPONENT NO. 01<<<<<<<<<<<<<<<<<<<<<<<<<<<<<<<<<<<<<<<<<<<<<<<<<<<<<<<


                                            -------------------------------------------
                                                      TRANSPORT STEP NO.  129
                                            -------------------------------------------

 TOTAL ELAPSED TIME SINCE BEGINNING OF SIMULATION =   12.30000    D   
 .....................................................................

                     CUMULATIVE MASS BUDGETS AT END OF TRANSPORT STEP  129, TIME STEP    1, STRESS PERIOD    2
                     -----------------------------------------------------------------------------------------

                                                             IN                           OUT
                                                      ----------------             ----------------
                               CONSTANT CONCENTRATION:    0.000000                    0.000000    
                                        CONSTANT HEAD:    0.000000                  -0.2503378E-02
                                                WELLS:   0.7590842E-02                0.000000    
                               MASS STOR (FLOW MODEL):    0.000000                    0.000000    
                                MASS STORAGE (SOLUTE):   0.7617294E-05              -0.5095148E-02
                            ---------------------------------------------------------------------------
                                              [TOTAL]:   0.7598460E-02 KG           -0.7598526E-02 KG  

                                                          NET (IN - OUT):  -0.6612390E-07
                                                   DISCREPANCY (PERCENT):  -0.8702239E-03
     1 CALLS TO GCG PACKAGE FOR TRANSPORT TIME STEP   130 IN FLOW TIME STEP     1 STRESS PERIOD     2
      4 TOTAL ITERATIONS
     1 CALLS TO GCG PACKAGE FOR TRANSPORT TIME STEP   131 IN FLOW TIME STEP     1 STRESS PERIOD     2
      4 TOTAL ITERATIONS
     1 CALLS TO GCG PACKAGE FOR TRANSPORT TIME STEP   132 IN FLOW TIME STEP     1 STRESS PERIOD     2
      4 TOTAL ITERATIONS
     1 CALLS TO GCG PACKAGE FOR TRANSPORT TIME STEP   133 IN FLOW TIME STEP     1 STRESS PERIOD     2
      4 TOTAL ITERATIONS
     1 CALLS TO GCG PACKAGE FOR TRANSPORT TIME STEP   134 IN FLOW TIME STEP     1 STRESS PERIOD     2
      4 TOTAL ITERATIONS
     1 CALLS TO GCG PACKAGE FOR TRANSPORT TIME STEP   135 IN FLOW TIME STEP     1 STRESS PERIOD     2
      4 TOTAL ITERATIONS
     1 CALLS TO GCG PACKAGE FOR TRANSPORT TIME STEP   136 IN FLOW TIME STEP     1 STRESS PERIOD     2
      4 TOTAL ITERATIONS
     1 CALLS TO GCG PACKAGE FOR TRANSPORT TIME STEP   137 IN FLOW TIME STEP     1 STRESS PERIOD     2
      4 TOTAL ITERATIONS
     1 CALLS TO GCG PACKAGE FOR TRANSPORT TIME STEP   138 IN FLOW TIME STEP     1 STRESS PERIOD     2
      4 TOTAL ITERATIONS
     1 CALLS TO GCG PACKAGE FOR TRANSPORT TIME STEP   139 IN FLOW TIME STEP     1 STRESS PERIOD     2
      4 TOTAL ITERATIONS
     1 CALLS TO GCG PACKAGE FOR TRANSPORT TIME STEP   140 IN FLOW TIME STEP     1 STRESS PERIOD     2
      4 TOTAL ITERATIONS
     1 CALLS TO GCG PACKAGE FOR TRANSPORT TIME STEP   141 IN FLOW TIME STEP     1 STRESS PERIOD     2
      4 TOTAL ITERATIONS
     1 CALLS TO GCG PACKAGE FOR TRANSPORT TIME STEP   142 IN FLOW TIME STEP     1 STRESS PERIOD     2
      4 TOTAL ITERATIONS
     1 CALLS TO GCG PACKAGE FOR TRANSPORT TIME STEP   143 IN FLOW TIME STEP     1 STRESS PERIOD     2
      4 TOTAL ITERATIONS
     1 CALLS TO GCG PACKAGE FOR TRANSPORT TIME STEP   144 IN FLOW TIME STEP     1 STRESS PERIOD     2
      4 TOTAL ITERATIONS
     1 CALLS TO GCG PACKAGE FOR TRANSPORT TIME STEP   145 IN FLOW TIME STEP     1 STRESS PERIOD     2
      4 TOTAL ITERATIONS
     1 CALLS TO GCG PACKAGE FOR TRANSPORT TIME STEP   146 IN FLOW TIME STEP     1 STRESS PERIOD     2
      4 TOTAL ITERATIONS
     1 CALLS TO GCG PACKAGE FOR TRANSPORT TIME STEP   147 IN FLOW TIME STEP     1 STRESS PERIOD     2
      4 TOTAL ITERATIONS
     1 CALLS TO GCG PACKAGE FOR TRANSPORT TIME STEP   148 IN FLOW TIME STEP     1 STRESS PERIOD     2
      4 TOTAL ITERATIONS
     1 CALLS TO GCG PACKAGE FOR TRANSPORT TIME STEP   149 IN FLOW TIME STEP     1 STRESS PERIOD     2
      4 TOTAL ITERATIONS
     1 CALLS TO GCG PACKAGE FOR TRANSPORT TIME STEP   150 IN FLOW TIME STEP     1 STRESS PERIOD     2
      4 TOTAL ITERATIONS
     1 CALLS TO GCG PACKAGE FOR TRANSPORT TIME STEP   151 IN FLOW TIME STEP     1 STRESS PERIOD     2
      4 TOTAL ITERATIONS
     1 CALLS TO GCG PACKAGE FOR TRANSPORT TIME STEP   152 IN FLOW TIME STEP     1 STRESS PERIOD     2
      4 TOTAL ITERATIONS
     1 CALLS TO GCG PACKAGE FOR TRANSPORT TIME STEP   153 IN FLOW TIME STEP     1 STRESS PERIOD     2
      4 TOTAL ITERATIONS
     1 CALLS TO GCG PACKAGE FOR TRANSPORT TIME STEP   154 IN FLOW TIME STEP     1 STRESS PERIOD     2
      4 TOTAL ITERATIONS
     1 CALLS TO GCG PACKAGE FOR TRANSPORT TIME STEP   155 IN FLOW TIME STEP     1 STRESS PERIOD     2
      4 TOTAL ITERATIONS
     1 CALLS TO GCG PACKAGE FOR TRANSPORT TIME STEP   156 IN FLOW TIME STEP     1 STRESS PERIOD     2
      4 TOTAL ITERATIONS
     1 CALLS TO GCG PACKAGE FOR TRANSPORT TIME STEP   157 IN FLOW TIME STEP     1 STRESS PERIOD     2
      4 TOTAL ITERATIONS
     1 CALLS TO GCG PACKAGE FOR TRANSPORT TIME STEP   158 IN FLOW TIME STEP     1 STRESS PERIOD     2
      4 TOTAL ITERATIONS
     1 CALLS TO GCG PACKAGE FOR TRANSPORT TIME STEP   159 IN FLOW TIME STEP     1 STRESS PERIOD     2
      4 TOTAL ITERATIONS
     1 CALLS TO GCG PACKAGE FOR TRANSPORT TIME STEP   160 IN FLOW TIME STEP     1 STRESS PERIOD     2
      4 TOTAL ITERATIONS
     1 CALLS TO GCG PACKAGE FOR TRANSPORT TIME STEP   161 IN FLOW TIME STEP     1 STRESS PERIOD     2
      4 TOTAL ITERATIONS
     1 CALLS TO GCG PACKAGE FOR TRANSPORT TIME STEP   162 IN FLOW TIME STEP     1 STRESS PERIOD     2
      4 TOTAL ITERATIONS
     1 CALLS TO GCG PACKAGE FOR TRANSPORT TIME STEP   163 IN FLOW TIME STEP     1 STRESS PERIOD     2
      4 TOTAL ITERATIONS
     1 CALLS TO GCG PACKAGE FOR TRANSPORT TIME STEP   164 IN FLOW TIME STEP     1 STRESS PERIOD     2
      4 TOTAL ITERATIONS
     1 CALLS TO GCG PACKAGE FOR TRANSPORT TIME STEP   165 IN FLOW TIME STEP     1 STRESS PERIOD     2
      4 TOTAL ITERATIONS
     1 CALLS TO GCG PACKAGE FOR TRANSPORT TIME STEP   166 IN FLOW TIME STEP     1 STRESS PERIOD     2
      4 TOTAL ITERATIONS
     1 CALLS TO GCG PACKAGE FOR TRANSPORT TIME STEP   167 IN FLOW TIME STEP     1 STRESS PERIOD     2
      4 TOTAL ITERATIONS
     1 CALLS TO GCG PACKAGE FOR TRANSPORT TIME STEP   168 IN FLOW TIME STEP     1 STRESS PERIOD     2
      4 TOTAL ITERATIONS
     1 CALLS TO GCG PACKAGE FOR TRANSPORT TIME STEP   169 IN FLOW TIME STEP     1 STRESS PERIOD     2
      4 TOTAL ITERATIONS
     1 CALLS TO GCG PACKAGE FOR TRANSPORT TIME STEP   170 IN FLOW TIME STEP     1 STRESS PERIOD     2
      4 TOTAL ITERATIONS
     1 CALLS TO GCG PACKAGE FOR TRANSPORT TIME STEP   171 IN FLOW TIME STEP     1 STRESS PERIOD     2
      4 TOTAL ITERATIONS
     1 CALLS TO GCG PACKAGE FOR TRANSPORT TIME STEP   172 IN FLOW TIME STEP     1 STRESS PERIOD     2
      4 TOTAL ITERATIONS
     1 CALLS TO GCG PACKAGE FOR TRANSPORT TIME STEP   173 IN FLOW TIME STEP     1 STRESS PERIOD     2
      4 TOTAL ITERATIONS
     1 CALLS TO GCG PACKAGE FOR TRANSPORT TIME STEP   174 IN FLOW TIME STEP     1 STRESS PERIOD     2
      4 TOTAL ITERATIONS
     1 CALLS TO GCG PACKAGE FOR TRANSPORT TIME STEP   175 IN FLOW TIME STEP     1 STRESS PERIOD     2
      3 TOTAL ITERATIONS



 >>>>>>>>>>>>>>>>>>>>>>>>>>>>>>>>>>>>>>>>>>>>>>>>>>>>>>>FOR COMPONENT NO. 01<<<<<<<<<<<<<<<<<<<<<<<<<<<<<<<<<<<<<<<<<<<<<<<<<<<<<<<


                                            -------------------------------------------
                                                      TRANSPORT STEP NO.  175
                                            -------------------------------------------

 TOTAL ELAPSED TIME SINCE BEGINNING OF SIMULATION =   13.12000    D   
 .....................................................................

                     CUMULATIVE MASS BUDGETS AT END OF TRANSPORT STEP  175, TIME STEP    1, STRESS PERIOD    2
                     -----------------------------------------------------------------------------------------

                                                             IN                           OUT
                                                      ----------------             ----------------
                               CONSTANT CONCENTRATION:    0.000000                    0.000000    
                                        CONSTANT HEAD:    0.000000                  -0.2947421E-02
                                                WELLS:   0.8096904E-02                0.000000    
                               MASS STOR (FLOW MODEL):    0.000000                    0.000000    
                                MASS STORAGE (SOLUTE):   0.7808144E-05              -0.5157366E-02
                            ---------------------------------------------------------------------------
                                              [TOTAL]:   0.8104712E-02 KG           -0.8104788E-02 KG  

                                                          NET (IN - OUT):  -0.7636845E-07
                                                   DISCREPANCY (PERCENT):  -0.9422678E-03
     1 CALLS TO GCG PACKAGE FOR TRANSPORT TIME STEP   176 IN FLOW TIME STEP     1 STRESS PERIOD     2
      4 TOTAL ITERATIONS
     1 CALLS TO GCG PACKAGE FOR TRANSPORT TIME STEP   177 IN FLOW TIME STEP     1 STRESS PERIOD     2
      4 TOTAL ITERATIONS
     1 CALLS TO GCG PACKAGE FOR TRANSPORT TIME STEP   178 IN FLOW TIME STEP     1 STRESS PERIOD     2
      4 TOTAL ITERATIONS
     1 CALLS TO GCG PACKAGE FOR TRANSPORT TIME STEP   179 IN FLOW TIME STEP     1 STRESS PERIOD     2
      4 TOTAL ITERATIONS
     1 CALLS TO GCG PACKAGE FOR TRANSPORT TIME STEP   180 IN FLOW TIME STEP     1 STRESS PERIOD     2
      4 TOTAL ITERATIONS
     1 CALLS TO GCG PACKAGE FOR TRANSPORT TIME STEP   181 IN FLOW TIME STEP     1 STRESS PERIOD     2
      4 TOTAL ITERATIONS
     1 CALLS TO GCG PACKAGE FOR TRANSPORT TIME STEP   182 IN FLOW TIME STEP     1 STRESS PERIOD     2
      4 TOTAL ITERATIONS
     1 CALLS TO GCG PACKAGE FOR TRANSPORT TIME STEP   183 IN FLOW TIME STEP     1 STRESS PERIOD     2
      4 TOTAL ITERATIONS
     1 CALLS TO GCG PACKAGE FOR TRANSPORT TIME STEP   184 IN FLOW TIME STEP     1 STRESS PERIOD     2
      4 TOTAL ITERATIONS
     1 CALLS TO GCG PACKAGE FOR TRANSPORT TIME STEP   185 IN FLOW TIME STEP     1 STRESS PERIOD     2
      4 TOTAL ITERATIONS
     1 CALLS TO GCG PACKAGE FOR TRANSPORT TIME STEP   186 IN FLOW TIME STEP     1 STRESS PERIOD     2
      4 TOTAL ITERATIONS
     1 CALLS TO GCG PACKAGE FOR TRANSPORT TIME STEP   187 IN FLOW TIME STEP     1 STRESS PERIOD     2
      4 TOTAL ITERATIONS
     1 CALLS TO GCG PACKAGE FOR TRANSPORT TIME STEP   188 IN FLOW TIME STEP     1 STRESS PERIOD     2
      4 TOTAL ITERATIONS
     1 CALLS TO GCG PACKAGE FOR TRANSPORT TIME STEP   189 IN FLOW TIME STEP     1 STRESS PERIOD     2
      4 TOTAL ITERATIONS
     1 CALLS TO GCG PACKAGE FOR TRANSPORT TIME STEP   190 IN FLOW TIME STEP     1 STRESS PERIOD     2
      4 TOTAL ITERATIONS
     1 CALLS TO GCG PACKAGE FOR TRANSPORT TIME STEP   191 IN FLOW TIME STEP     1 STRESS PERIOD     2
      4 TOTAL ITERATIONS
     1 CALLS TO GCG PACKAGE FOR TRANSPORT TIME STEP   192 IN FLOW TIME STEP     1 STRESS PERIOD     2
      4 TOTAL ITERATIONS
     1 CALLS TO GCG PACKAGE FOR TRANSPORT TIME STEP   193 IN FLOW TIME STEP     1 STRESS PERIOD     2
      4 TOTAL ITERATIONS
     1 CALLS TO GCG PACKAGE FOR TRANSPORT TIME STEP   194 IN FLOW TIME STEP     1 STRESS PERIOD     2
      4 TOTAL ITERATIONS
     1 CALLS TO GCG PACKAGE FOR TRANSPORT TIME STEP   195 IN FLOW TIME STEP     1 STRESS PERIOD     2
      4 TOTAL ITERATIONS
     1 CALLS TO GCG PACKAGE FOR TRANSPORT TIME STEP   196 IN FLOW TIME STEP     1 STRESS PERIOD     2
      4 TOTAL ITERATIONS
     1 CALLS TO GCG PACKAGE FOR TRANSPORT TIME STEP   197 IN FLOW TIME STEP     1 STRESS PERIOD     2
      4 TOTAL ITERATIONS
     1 CALLS TO GCG PACKAGE FOR TRANSPORT TIME STEP   198 IN FLOW TIME STEP     1 STRESS PERIOD     2
      4 TOTAL ITERATIONS
     1 CALLS TO GCG PACKAGE FOR TRANSPORT TIME STEP   199 IN FLOW TIME STEP     1 STRESS PERIOD     2
      4 TOTAL ITERATIONS
     1 CALLS TO GCG PACKAGE FOR TRANSPORT TIME STEP   200 IN FLOW TIME STEP     1 STRESS PERIOD     2
      4 TOTAL ITERATIONS
     1 CALLS TO GCG PACKAGE FOR TRANSPORT TIME STEP   201 IN FLOW TIME STEP     1 STRESS PERIOD     2
      4 TOTAL ITERATIONS
     1 CALLS TO GCG PACKAGE FOR TRANSPORT TIME STEP   202 IN FLOW TIME STEP     1 STRESS PERIOD     2
      4 TOTAL ITERATIONS
     1 CALLS TO GCG PACKAGE FOR TRANSPORT TIME STEP   203 IN FLOW TIME STEP     1 STRESS PERIOD     2
      4 TOTAL ITERATIONS
     1 CALLS TO GCG PACKAGE FOR TRANSPORT TIME STEP   204 IN FLOW TIME STEP     1 STRESS PERIOD     2
      4 TOTAL ITERATIONS
     1 CALLS TO GCG PACKAGE FOR TRANSPORT TIME STEP   205 IN FLOW TIME STEP     1 STRESS PERIOD     2
      4 TOTAL ITERATIONS
     1 CALLS TO GCG PACKAGE FOR TRANSPORT TIME STEP   206 IN FLOW TIME STEP     1 STRESS PERIOD     2
      4 TOTAL ITERATIONS
     1 CALLS TO GCG PACKAGE FOR TRANSPORT TIME STEP   207 IN FLOW TIME STEP     1 STRESS PERIOD     2
      4 TOTAL ITERATIONS
     1 CALLS TO GCG PACKAGE FOR TRANSPORT TIME STEP   208 IN FLOW TIME STEP     1 STRESS PERIOD     2
      4 TOTAL ITERATIONS
     1 CALLS TO GCG PACKAGE FOR TRANSPORT TIME STEP   209 IN FLOW TIME STEP     1 STRESS PERIOD     2
      4 TOTAL ITERATIONS
     1 CALLS TO GCG PACKAGE FOR TRANSPORT TIME STEP   210 IN FLOW TIME STEP     1 STRESS PERIOD     2
      4 TOTAL ITERATIONS
     1 CALLS TO GCG PACKAGE FOR TRANSPORT TIME STEP   211 IN FLOW TIME STEP     1 STRESS PERIOD     2
      4 TOTAL ITERATIONS
     1 CALLS TO GCG PACKAGE FOR TRANSPORT TIME STEP   212 IN FLOW TIME STEP     1 STRESS PERIOD     2
      4 TOTAL ITERATIONS
     1 CALLS TO GCG PACKAGE FOR TRANSPORT TIME STEP   213 IN FLOW TIME STEP     1 STRESS PERIOD     2
      4 TOTAL ITERATIONS
     1 CALLS TO GCG PACKAGE FOR TRANSPORT TIME STEP   214 IN FLOW TIME STEP     1 STRESS PERIOD     2
      4 TOTAL ITERATIONS
     1 CALLS TO GCG PACKAGE FOR TRANSPORT TIME STEP   215 IN FLOW TIME STEP     1 STRESS PERIOD     2
      4 TOTAL ITERATIONS
     1 CALLS TO GCG PACKAGE FOR TRANSPORT TIME STEP   216 IN FLOW TIME STEP     1 STRESS PERIOD     2
      4 TOTAL ITERATIONS
     1 CALLS TO GCG PACKAGE FOR TRANSPORT TIME STEP   217 IN FLOW TIME STEP     1 STRESS PERIOD     2
      4 TOTAL ITERATIONS
     1 CALLS TO GCG PACKAGE FOR TRANSPORT TIME STEP   218 IN FLOW TIME STEP     1 STRESS PERIOD     2
      4 TOTAL ITERATIONS
     1 CALLS TO GCG PACKAGE FOR TRANSPORT TIME STEP   219 IN FLOW TIME STEP     1 STRESS PERIOD     2
      4 TOTAL ITERATIONS
     1 CALLS TO GCG PACKAGE FOR TRANSPORT TIME STEP   220 IN FLOW TIME STEP     1 STRESS PERIOD     2
      4 TOTAL ITERATIONS
     1 CALLS TO GCG PACKAGE FOR TRANSPORT TIME STEP   221 IN FLOW TIME STEP     1 STRESS PERIOD     2
      3 TOTAL ITERATIONS



 >>>>>>>>>>>>>>>>>>>>>>>>>>>>>>>>>>>>>>>>>>>>>>>>>>>>>>>FOR COMPONENT NO. 01<<<<<<<<<<<<<<<<<<<<<<<<<<<<<<<<<<<<<<<<<<<<<<<<<<<<<<<


                                            -------------------------------------------
                                                      TRANSPORT STEP NO.  221
                                            -------------------------------------------

 TOTAL ELAPSED TIME SINCE BEGINNING OF SIMULATION =   13.94000    D   
 .....................................................................

                     CUMULATIVE MASS BUDGETS AT END OF TRANSPORT STEP  221, TIME STEP    1, STRESS PERIOD    2
                     -----------------------------------------------------------------------------------------

                                                             IN                           OUT
                                                      ----------------             ----------------
                               CONSTANT CONCENTRATION:    0.000000                    0.000000    
                                        CONSTANT HEAD:    0.000000                  -0.3396038E-02
                                                WELLS:   0.8602965E-02                0.000000    
                               MASS STOR (FLOW MODEL):    0.000000                    0.000000    
                                MASS STORAGE (SOLUTE):   0.7911507E-05              -0.5214925E-02
                            ---------------------------------------------------------------------------
                                              [TOTAL]:   0.8610876E-02 KG           -0.8610964E-02 KG  

                                                          NET (IN - OUT):  -0.8754432E-07
                                                   DISCREPANCY (PERCENT):  -0.1016666E-02
     1 CALLS TO GCG PACKAGE FOR TRANSPORT TIME STEP   222 IN FLOW TIME STEP     1 STRESS PERIOD     2
      4 TOTAL ITERATIONS
     1 CALLS TO GCG PACKAGE FOR TRANSPORT TIME STEP   223 IN FLOW TIME STEP     1 STRESS PERIOD     2
      4 TOTAL ITERATIONS
     1 CALLS TO GCG PACKAGE FOR TRANSPORT TIME STEP   224 IN FLOW TIME STEP     1 STRESS PERIOD     2
      4 TOTAL ITERATIONS
     1 CALLS TO GCG PACKAGE FOR TRANSPORT TIME STEP   225 IN FLOW TIME STEP     1 STRESS PERIOD     2
      4 TOTAL ITERATIONS
     1 CALLS TO GCG PACKAGE FOR TRANSPORT TIME STEP   226 IN FLOW TIME STEP     1 STRESS PERIOD     2
      4 TOTAL ITERATIONS
     1 CALLS TO GCG PACKAGE FOR TRANSPORT TIME STEP   227 IN FLOW TIME STEP     1 STRESS PERIOD     2
      4 TOTAL ITERATIONS
     1 CALLS TO GCG PACKAGE FOR TRANSPORT TIME STEP   228 IN FLOW TIME STEP     1 STRESS PERIOD     2
      4 TOTAL ITERATIONS
     1 CALLS TO GCG PACKAGE FOR TRANSPORT TIME STEP   229 IN FLOW TIME STEP     1 STRESS PERIOD     2
      4 TOTAL ITERATIONS
     1 CALLS TO GCG PACKAGE FOR TRANSPORT TIME STEP   230 IN FLOW TIME STEP     1 STRESS PERIOD     2
      4 TOTAL ITERATIONS
     1 CALLS TO GCG PACKAGE FOR TRANSPORT TIME STEP   231 IN FLOW TIME STEP     1 STRESS PERIOD     2
      4 TOTAL ITERATIONS
     1 CALLS TO GCG PACKAGE FOR TRANSPORT TIME STEP   232 IN FLOW TIME STEP     1 STRESS PERIOD     2
      4 TOTAL ITERATIONS
     1 CALLS TO GCG PACKAGE FOR TRANSPORT TIME STEP   233 IN FLOW TIME STEP     1 STRESS PERIOD     2
      4 TOTAL ITERATIONS
     1 CALLS TO GCG PACKAGE FOR TRANSPORT TIME STEP   234 IN FLOW TIME STEP     1 STRESS PERIOD     2
      4 TOTAL ITERATIONS
     1 CALLS TO GCG PACKAGE FOR TRANSPORT TIME STEP   235 IN FLOW TIME STEP     1 STRESS PERIOD     2
      4 TOTAL ITERATIONS
     1 CALLS TO GCG PACKAGE FOR TRANSPORT TIME STEP   236 IN FLOW TIME STEP     1 STRESS PERIOD     2
      4 TOTAL ITERATIONS
     1 CALLS TO GCG PACKAGE FOR TRANSPORT TIME STEP   237 IN FLOW TIME STEP     1 STRESS PERIOD     2
      4 TOTAL ITERATIONS
     1 CALLS TO GCG PACKAGE FOR TRANSPORT TIME STEP   238 IN FLOW TIME STEP     1 STRESS PERIOD     2
      4 TOTAL ITERATIONS
     1 CALLS TO GCG PACKAGE FOR TRANSPORT TIME STEP   239 IN FLOW TIME STEP     1 STRESS PERIOD     2
      4 TOTAL ITERATIONS
     1 CALLS TO GCG PACKAGE FOR TRANSPORT TIME STEP   240 IN FLOW TIME STEP     1 STRESS PERIOD     2
      4 TOTAL ITERATIONS
     1 CALLS TO GCG PACKAGE FOR TRANSPORT TIME STEP   241 IN FLOW TIME STEP     1 STRESS PERIOD     2
      4 TOTAL ITERATIONS
     1 CALLS TO GCG PACKAGE FOR TRANSPORT TIME STEP   242 IN FLOW TIME STEP     1 STRESS PERIOD     2
      4 TOTAL ITERATIONS
     1 CALLS TO GCG PACKAGE FOR TRANSPORT TIME STEP   243 IN FLOW TIME STEP     1 STRESS PERIOD     2
      4 TOTAL ITERATIONS
     1 CALLS TO GCG PACKAGE FOR TRANSPORT TIME STEP   244 IN FLOW TIME STEP     1 STRESS PERIOD     2
      4 TOTAL ITERATIONS
     1 CALLS TO GCG PACKAGE FOR TRANSPORT TIME STEP   245 IN FLOW TIME STEP     1 STRESS PERIOD     2
      4 TOTAL ITERATIONS
     1 CALLS TO GCG PACKAGE FOR TRANSPORT TIME STEP   246 IN FLOW TIME STEP     1 STRESS PERIOD     2
      4 TOTAL ITERATIONS
     1 CALLS TO GCG PACKAGE FOR TRANSPORT TIME STEP   247 IN FLOW TIME STEP     1 STRESS PERIOD     2
      4 TOTAL ITERATIONS
     1 CALLS TO GCG PACKAGE FOR TRANSPORT TIME STEP   248 IN FLOW TIME STEP     1 STRESS PERIOD     2
      4 TOTAL ITERATIONS
     1 CALLS TO GCG PACKAGE FOR TRANSPORT TIME STEP   249 IN FLOW TIME STEP     1 STRESS PERIOD     2
      4 TOTAL ITERATIONS
     1 CALLS TO GCG PACKAGE FOR TRANSPORT TIME STEP   250 IN FLOW TIME STEP     1 STRESS PERIOD     2
      4 TOTAL ITERATIONS
     1 CALLS TO GCG PACKAGE FOR TRANSPORT TIME STEP   251 IN FLOW TIME STEP     1 STRESS PERIOD     2
      4 TOTAL ITERATIONS
     1 CALLS TO GCG PACKAGE FOR TRANSPORT TIME STEP   252 IN FLOW TIME STEP     1 STRESS PERIOD     2
      4 TOTAL ITERATIONS
     1 CALLS TO GCG PACKAGE FOR TRANSPORT TIME STEP   253 IN FLOW TIME STEP     1 STRESS PERIOD     2
      4 TOTAL ITERATIONS
     1 CALLS TO GCG PACKAGE FOR TRANSPORT TIME STEP   254 IN FLOW TIME STEP     1 STRESS PERIOD     2
      4 TOTAL ITERATIONS
     1 CALLS TO GCG PACKAGE FOR TRANSPORT TIME STEP   255 IN FLOW TIME STEP     1 STRESS PERIOD     2
      4 TOTAL ITERATIONS
     1 CALLS TO GCG PACKAGE FOR TRANSPORT TIME STEP   256 IN FLOW TIME STEP     1 STRESS PERIOD     2
      4 TOTAL ITERATIONS
     1 CALLS TO GCG PACKAGE FOR TRANSPORT TIME STEP   257 IN FLOW TIME STEP     1 STRESS PERIOD     2
      4 TOTAL ITERATIONS
     1 CALLS TO GCG PACKAGE FOR TRANSPORT TIME STEP   258 IN FLOW TIME STEP     1 STRESS PERIOD     2
      4 TOTAL ITERATIONS
     1 CALLS TO GCG PACKAGE FOR TRANSPORT TIME STEP   259 IN FLOW TIME STEP     1 STRESS PERIOD     2
      4 TOTAL ITERATIONS
     1 CALLS TO GCG PACKAGE FOR TRANSPORT TIME STEP   260 IN FLOW TIME STEP     1 STRESS PERIOD     2
      4 TOTAL ITERATIONS
     1 CALLS TO GCG PACKAGE FOR TRANSPORT TIME STEP   261 IN FLOW TIME STEP     1 STRESS PERIOD     2
      4 TOTAL ITERATIONS
     1 CALLS TO GCG PACKAGE FOR TRANSPORT TIME STEP   262 IN FLOW TIME STEP     1 STRESS PERIOD     2
      4 TOTAL ITERATIONS
     1 CALLS TO GCG PACKAGE FOR TRANSPORT TIME STEP   263 IN FLOW TIME STEP     1 STRESS PERIOD     2
      4 TOTAL ITERATIONS
     1 CALLS TO GCG PACKAGE FOR TRANSPORT TIME STEP   264 IN FLOW TIME STEP     1 STRESS PERIOD     2
      4 TOTAL ITERATIONS
     1 CALLS TO GCG PACKAGE FOR TRANSPORT TIME STEP   265 IN FLOW TIME STEP     1 STRESS PERIOD     2
      4 TOTAL ITERATIONS
     1 CALLS TO GCG PACKAGE FOR TRANSPORT TIME STEP   266 IN FLOW TIME STEP     1 STRESS PERIOD     2
      4 TOTAL ITERATIONS
     1 CALLS TO GCG PACKAGE FOR TRANSPORT TIME STEP   267 IN FLOW TIME STEP     1 STRESS PERIOD     2
      3 TOTAL ITERATIONS



 >>>>>>>>>>>>>>>>>>>>>>>>>>>>>>>>>>>>>>>>>>>>>>>>>>>>>>>FOR COMPONENT NO. 01<<<<<<<<<<<<<<<<<<<<<<<<<<<<<<<<<<<<<<<<<<<<<<<<<<<<<<<


                                            -------------------------------------------
                                                      TRANSPORT STEP NO.  267
                                            -------------------------------------------

 TOTAL ELAPSED TIME SINCE BEGINNING OF SIMULATION =   14.76000    D   
 .....................................................................

                     CUMULATIVE MASS BUDGETS AT END OF TRANSPORT STEP  267, TIME STEP    1, STRESS PERIOD    2
                     -----------------------------------------------------------------------------------------

                                                             IN                           OUT
                                                      ----------------             ----------------
                               CONSTANT CONCENTRATION:    0.000000                    0.000000    
                                        CONSTANT HEAD:    0.000000                  -0.3848671E-02
                                                WELLS:   0.9109027E-02                0.000000    
                               MASS STOR (FLOW MODEL):    0.000000                    0.000000    
                                MASS STORAGE (SOLUTE):   0.7988215E-05              -0.5268442E-02
                            ---------------------------------------------------------------------------
                                              [TOTAL]:   0.9117015E-02 KG           -0.9117112E-02 KG  

                                                          NET (IN - OUT):  -0.9778887E-07
                                                   DISCREPANCY (PERCENT):  -0.1072592E-02
     1 CALLS TO GCG PACKAGE FOR TRANSPORT TIME STEP   268 IN FLOW TIME STEP     1 STRESS PERIOD     2
      4 TOTAL ITERATIONS
     1 CALLS TO GCG PACKAGE FOR TRANSPORT TIME STEP   269 IN FLOW TIME STEP     1 STRESS PERIOD     2
      4 TOTAL ITERATIONS
     1 CALLS TO GCG PACKAGE FOR TRANSPORT TIME STEP   270 IN FLOW TIME STEP     1 STRESS PERIOD     2
      4 TOTAL ITERATIONS
     1 CALLS TO GCG PACKAGE FOR TRANSPORT TIME STEP   271 IN FLOW TIME STEP     1 STRESS PERIOD     2
      4 TOTAL ITERATIONS
     1 CALLS TO GCG PACKAGE FOR TRANSPORT TIME STEP   272 IN FLOW TIME STEP     1 STRESS PERIOD     2
      4 TOTAL ITERATIONS
     1 CALLS TO GCG PACKAGE FOR TRANSPORT TIME STEP   273 IN FLOW TIME STEP     1 STRESS PERIOD     2
      4 TOTAL ITERATIONS
     1 CALLS TO GCG PACKAGE FOR TRANSPORT TIME STEP   274 IN FLOW TIME STEP     1 STRESS PERIOD     2
      4 TOTAL ITERATIONS
     1 CALLS TO GCG PACKAGE FOR TRANSPORT TIME STEP   275 IN FLOW TIME STEP     1 STRESS PERIOD     2
      4 TOTAL ITERATIONS
     1 CALLS TO GCG PACKAGE FOR TRANSPORT TIME STEP   276 IN FLOW TIME STEP     1 STRESS PERIOD     2
      4 TOTAL ITERATIONS
     1 CALLS TO GCG PACKAGE FOR TRANSPORT TIME STEP   277 IN FLOW TIME STEP     1 STRESS PERIOD     2
      4 TOTAL ITERATIONS
     1 CALLS TO GCG PACKAGE FOR TRANSPORT TIME STEP   278 IN FLOW TIME STEP     1 STRESS PERIOD     2
      4 TOTAL ITERATIONS
     1 CALLS TO GCG PACKAGE FOR TRANSPORT TIME STEP   279 IN FLOW TIME STEP     1 STRESS PERIOD     2
      4 TOTAL ITERATIONS
     1 CALLS TO GCG PACKAGE FOR TRANSPORT TIME STEP   280 IN FLOW TIME STEP     1 STRESS PERIOD     2
      4 TOTAL ITERATIONS
     1 CALLS TO GCG PACKAGE FOR TRANSPORT TIME STEP   281 IN FLOW TIME STEP     1 STRESS PERIOD     2
      4 TOTAL ITERATIONS
     1 CALLS TO GCG PACKAGE FOR TRANSPORT TIME STEP   282 IN FLOW TIME STEP     1 STRESS PERIOD     2
      4 TOTAL ITERATIONS
     1 CALLS TO GCG PACKAGE FOR TRANSPORT TIME STEP   283 IN FLOW TIME STEP     1 STRESS PERIOD     2
      4 TOTAL ITERATIONS
     1 CALLS TO GCG PACKAGE FOR TRANSPORT TIME STEP   284 IN FLOW TIME STEP     1 STRESS PERIOD     2
      4 TOTAL ITERATIONS
     1 CALLS TO GCG PACKAGE FOR TRANSPORT TIME STEP   285 IN FLOW TIME STEP     1 STRESS PERIOD     2
      4 TOTAL ITERATIONS
     1 CALLS TO GCG PACKAGE FOR TRANSPORT TIME STEP   286 IN FLOW TIME STEP     1 STRESS PERIOD     2
      4 TOTAL ITERATIONS
     1 CALLS TO GCG PACKAGE FOR TRANSPORT TIME STEP   287 IN FLOW TIME STEP     1 STRESS PERIOD     2
      4 TOTAL ITERATIONS
     1 CALLS TO GCG PACKAGE FOR TRANSPORT TIME STEP   288 IN FLOW TIME STEP     1 STRESS PERIOD     2
      4 TOTAL ITERATIONS
     1 CALLS TO GCG PACKAGE FOR TRANSPORT TIME STEP   289 IN FLOW TIME STEP     1 STRESS PERIOD     2
      4 TOTAL ITERATIONS
     1 CALLS TO GCG PACKAGE FOR TRANSPORT TIME STEP   290 IN FLOW TIME STEP     1 STRESS PERIOD     2
      4 TOTAL ITERATIONS
     1 CALLS TO GCG PACKAGE FOR TRANSPORT TIME STEP   291 IN FLOW TIME STEP     1 STRESS PERIOD     2
      4 TOTAL ITERATIONS
     1 CALLS TO GCG PACKAGE FOR TRANSPORT TIME STEP   292 IN FLOW TIME STEP     1 STRESS PERIOD     2
      4 TOTAL ITERATIONS
     1 CALLS TO GCG PACKAGE FOR TRANSPORT TIME STEP   293 IN FLOW TIME STEP     1 STRESS PERIOD     2
      4 TOTAL ITERATIONS
     1 CALLS TO GCG PACKAGE FOR TRANSPORT TIME STEP   294 IN FLOW TIME STEP     1 STRESS PERIOD     2
      4 TOTAL ITERATIONS
     1 CALLS TO GCG PACKAGE FOR TRANSPORT TIME STEP   295 IN FLOW TIME STEP     1 STRESS PERIOD     2
      4 TOTAL ITERATIONS
     1 CALLS TO GCG PACKAGE FOR TRANSPORT TIME STEP   296 IN FLOW TIME STEP     1 STRESS PERIOD     2
      4 TOTAL ITERATIONS
     1 CALLS TO GCG PACKAGE FOR TRANSPORT TIME STEP   297 IN FLOW TIME STEP     1 STRESS PERIOD     2
      4 TOTAL ITERATIONS
     1 CALLS TO GCG PACKAGE FOR TRANSPORT TIME STEP   298 IN FLOW TIME STEP     1 STRESS PERIOD     2
      4 TOTAL ITERATIONS
     1 CALLS TO GCG PACKAGE FOR TRANSPORT TIME STEP   299 IN FLOW TIME STEP     1 STRESS PERIOD     2
      4 TOTAL ITERATIONS
     1 CALLS TO GCG PACKAGE FOR TRANSPORT TIME STEP   300 IN FLOW TIME STEP     1 STRESS PERIOD     2
      4 TOTAL ITERATIONS
     1 CALLS TO GCG PACKAGE FOR TRANSPORT TIME STEP   301 IN FLOW TIME STEP     1 STRESS PERIOD     2
      4 TOTAL ITERATIONS
     1 CALLS TO GCG PACKAGE FOR TRANSPORT TIME STEP   302 IN FLOW TIME STEP     1 STRESS PERIOD     2
      4 TOTAL ITERATIONS
     1 CALLS TO GCG PACKAGE FOR TRANSPORT TIME STEP   303 IN FLOW TIME STEP     1 STRESS PERIOD     2
      4 TOTAL ITERATIONS
     1 CALLS TO GCG PACKAGE FOR TRANSPORT TIME STEP   304 IN FLOW TIME STEP     1 STRESS PERIOD     2
      4 TOTAL ITERATIONS
     1 CALLS TO GCG PACKAGE FOR TRANSPORT TIME STEP   305 IN FLOW TIME STEP     1 STRESS PERIOD     2
      4 TOTAL ITERATIONS
     1 CALLS TO GCG PACKAGE FOR TRANSPORT TIME STEP   306 IN FLOW TIME STEP     1 STRESS PERIOD     2
      4 TOTAL ITERATIONS
     1 CALLS TO GCG PACKAGE FOR TRANSPORT TIME STEP   307 IN FLOW TIME STEP     1 STRESS PERIOD     2
      4 TOTAL ITERATIONS
     1 CALLS TO GCG PACKAGE FOR TRANSPORT TIME STEP   308 IN FLOW TIME STEP     1 STRESS PERIOD     2
      4 TOTAL ITERATIONS
     1 CALLS TO GCG PACKAGE FOR TRANSPORT TIME STEP   309 IN FLOW TIME STEP     1 STRESS PERIOD     2
      4 TOTAL ITERATIONS
     1 CALLS TO GCG PACKAGE FOR TRANSPORT TIME STEP   310 IN FLOW TIME STEP     1 STRESS PERIOD     2
      4 TOTAL ITERATIONS
     1 CALLS TO GCG PACKAGE FOR TRANSPORT TIME STEP   311 IN FLOW TIME STEP     1 STRESS PERIOD     2
      4 TOTAL ITERATIONS
     1 CALLS TO GCG PACKAGE FOR TRANSPORT TIME STEP   312 IN FLOW TIME STEP     1 STRESS PERIOD     2
      4 TOTAL ITERATIONS
     1 CALLS TO GCG PACKAGE FOR TRANSPORT TIME STEP   313 IN FLOW TIME STEP     1 STRESS PERIOD     2
      3 TOTAL ITERATIONS



 >>>>>>>>>>>>>>>>>>>>>>>>>>>>>>>>>>>>>>>>>>>>>>>>>>>>>>>FOR COMPONENT NO. 01<<<<<<<<<<<<<<<<<<<<<<<<<<<<<<<<<<<<<<<<<<<<<<<<<<<<<<<


                                            -------------------------------------------
                                                      TRANSPORT STEP NO.  313
                                            -------------------------------------------

 TOTAL ELAPSED TIME SINCE BEGINNING OF SIMULATION =   15.58000    D   
 .....................................................................

                     CUMULATIVE MASS BUDGETS AT END OF TRANSPORT STEP  313, TIME STEP    1, STRESS PERIOD    2
                     -----------------------------------------------------------------------------------------

                                                             IN                           OUT
                                                      ----------------             ----------------
                               CONSTANT CONCENTRATION:    0.000000                    0.000000    
                                        CONSTANT HEAD:    0.000000                  -0.4304904E-02
                                                WELLS:   0.9615088E-02                0.000000    
                               MASS STOR (FLOW MODEL):    0.000000                    0.000000    
                                MASS STORAGE (SOLUTE):   0.8051628E-05              -0.5318344E-02
                            ---------------------------------------------------------------------------
                                              [TOTAL]:   0.9623139E-02 KG           -0.9623248E-02 KG  

                                                          NET (IN - OUT):  -0.1089647E-06
                                                   DISCREPANCY (PERCENT):  -0.1132314E-02
     1 CALLS TO GCG PACKAGE FOR TRANSPORT TIME STEP   314 IN FLOW TIME STEP     1 STRESS PERIOD     2
      4 TOTAL ITERATIONS
     1 CALLS TO GCG PACKAGE FOR TRANSPORT TIME STEP   315 IN FLOW TIME STEP     1 STRESS PERIOD     2
      4 TOTAL ITERATIONS
     1 CALLS TO GCG PACKAGE FOR TRANSPORT TIME STEP   316 IN FLOW TIME STEP     1 STRESS PERIOD     2
      4 TOTAL ITERATIONS
     1 CALLS TO GCG PACKAGE FOR TRANSPORT TIME STEP   317 IN FLOW TIME STEP     1 STRESS PERIOD     2
      4 TOTAL ITERATIONS
     1 CALLS TO GCG PACKAGE FOR TRANSPORT TIME STEP   318 IN FLOW TIME STEP     1 STRESS PERIOD     2
      4 TOTAL ITERATIONS
     1 CALLS TO GCG PACKAGE FOR TRANSPORT TIME STEP   319 IN FLOW TIME STEP     1 STRESS PERIOD     2
      4 TOTAL ITERATIONS
     1 CALLS TO GCG PACKAGE FOR TRANSPORT TIME STEP   320 IN FLOW TIME STEP     1 STRESS PERIOD     2
      4 TOTAL ITERATIONS
     1 CALLS TO GCG PACKAGE FOR TRANSPORT TIME STEP   321 IN FLOW TIME STEP     1 STRESS PERIOD     2
      4 TOTAL ITERATIONS
     1 CALLS TO GCG PACKAGE FOR TRANSPORT TIME STEP   322 IN FLOW TIME STEP     1 STRESS PERIOD     2
      4 TOTAL ITERATIONS
     1 CALLS TO GCG PACKAGE FOR TRANSPORT TIME STEP   323 IN FLOW TIME STEP     1 STRESS PERIOD     2
      4 TOTAL ITERATIONS
     1 CALLS TO GCG PACKAGE FOR TRANSPORT TIME STEP   324 IN FLOW TIME STEP     1 STRESS PERIOD     2
      4 TOTAL ITERATIONS
     1 CALLS TO GCG PACKAGE FOR TRANSPORT TIME STEP   325 IN FLOW TIME STEP     1 STRESS PERIOD     2
      4 TOTAL ITERATIONS
     1 CALLS TO GCG PACKAGE FOR TRANSPORT TIME STEP   326 IN FLOW TIME STEP     1 STRESS PERIOD     2
      4 TOTAL ITERATIONS
     1 CALLS TO GCG PACKAGE FOR TRANSPORT TIME STEP   327 IN FLOW TIME STEP     1 STRESS PERIOD     2
      4 TOTAL ITERATIONS
     1 CALLS TO GCG PACKAGE FOR TRANSPORT TIME STEP   328 IN FLOW TIME STEP     1 STRESS PERIOD     2
      4 TOTAL ITERATIONS
     1 CALLS TO GCG PACKAGE FOR TRANSPORT TIME STEP   329 IN FLOW TIME STEP     1 STRESS PERIOD     2
      4 TOTAL ITERATIONS
     1 CALLS TO GCG PACKAGE FOR TRANSPORT TIME STEP   330 IN FLOW TIME STEP     1 STRESS PERIOD     2
      4 TOTAL ITERATIONS
     1 CALLS TO GCG PACKAGE FOR TRANSPORT TIME STEP   331 IN FLOW TIME STEP     1 STRESS PERIOD     2
      4 TOTAL ITERATIONS
     1 CALLS TO GCG PACKAGE FOR TRANSPORT TIME STEP   332 IN FLOW TIME STEP     1 STRESS PERIOD     2
      4 TOTAL ITERATIONS
     1 CALLS TO GCG PACKAGE FOR TRANSPORT TIME STEP   333 IN FLOW TIME STEP     1 STRESS PERIOD     2
      4 TOTAL ITERATIONS
     1 CALLS TO GCG PACKAGE FOR TRANSPORT TIME STEP   334 IN FLOW TIME STEP     1 STRESS PERIOD     2
      4 TOTAL ITERATIONS
     1 CALLS TO GCG PACKAGE FOR TRANSPORT TIME STEP   335 IN FLOW TIME STEP     1 STRESS PERIOD     2
      4 TOTAL ITERATIONS
     1 CALLS TO GCG PACKAGE FOR TRANSPORT TIME STEP   336 IN FLOW TIME STEP     1 STRESS PERIOD     2
      4 TOTAL ITERATIONS
     1 CALLS TO GCG PACKAGE FOR TRANSPORT TIME STEP   337 IN FLOW TIME STEP     1 STRESS PERIOD     2
      4 TOTAL ITERATIONS
     1 CALLS TO GCG PACKAGE FOR TRANSPORT TIME STEP   338 IN FLOW TIME STEP     1 STRESS PERIOD     2
      4 TOTAL ITERATIONS
     1 CALLS TO GCG PACKAGE FOR TRANSPORT TIME STEP   339 IN FLOW TIME STEP     1 STRESS PERIOD     2
      4 TOTAL ITERATIONS
     1 CALLS TO GCG PACKAGE FOR TRANSPORT TIME STEP   340 IN FLOW TIME STEP     1 STRESS PERIOD     2
      4 TOTAL ITERATIONS
     1 CALLS TO GCG PACKAGE FOR TRANSPORT TIME STEP   341 IN FLOW TIME STEP     1 STRESS PERIOD     2
      4 TOTAL ITERATIONS
     1 CALLS TO GCG PACKAGE FOR TRANSPORT TIME STEP   342 IN FLOW TIME STEP     1 STRESS PERIOD     2
      4 TOTAL ITERATIONS
     1 CALLS TO GCG PACKAGE FOR TRANSPORT TIME STEP   343 IN FLOW TIME STEP     1 STRESS PERIOD     2
      4 TOTAL ITERATIONS
     1 CALLS TO GCG PACKAGE FOR TRANSPORT TIME STEP   344 IN FLOW TIME STEP     1 STRESS PERIOD     2
      4 TOTAL ITERATIONS
     1 CALLS TO GCG PACKAGE FOR TRANSPORT TIME STEP   345 IN FLOW TIME STEP     1 STRESS PERIOD     2
      4 TOTAL ITERATIONS
     1 CALLS TO GCG PACKAGE FOR TRANSPORT TIME STEP   346 IN FLOW TIME STEP     1 STRESS PERIOD     2
      4 TOTAL ITERATIONS
     1 CALLS TO GCG PACKAGE FOR TRANSPORT TIME STEP   347 IN FLOW TIME STEP     1 STRESS PERIOD     2
      4 TOTAL ITERATIONS
     1 CALLS TO GCG PACKAGE FOR TRANSPORT TIME STEP   348 IN FLOW TIME STEP     1 STRESS PERIOD     2
      4 TOTAL ITERATIONS
     1 CALLS TO GCG PACKAGE FOR TRANSPORT TIME STEP   349 IN FLOW TIME STEP     1 STRESS PERIOD     2
      4 TOTAL ITERATIONS
     1 CALLS TO GCG PACKAGE FOR TRANSPORT TIME STEP   350 IN FLOW TIME STEP     1 STRESS PERIOD     2
      4 TOTAL ITERATIONS
     1 CALLS TO GCG PACKAGE FOR TRANSPORT TIME STEP   351 IN FLOW TIME STEP     1 STRESS PERIOD     2
      4 TOTAL ITERATIONS
     1 CALLS TO GCG PACKAGE FOR TRANSPORT TIME STEP   352 IN FLOW TIME STEP     1 STRESS PERIOD     2
      4 TOTAL ITERATIONS
     1 CALLS TO GCG PACKAGE FOR TRANSPORT TIME STEP   353 IN FLOW TIME STEP     1 STRESS PERIOD     2
      4 TOTAL ITERATIONS
     1 CALLS TO GCG PACKAGE FOR TRANSPORT TIME STEP   354 IN FLOW TIME STEP     1 STRESS PERIOD     2
      4 TOTAL ITERATIONS
     1 CALLS TO GCG PACKAGE FOR TRANSPORT TIME STEP   355 IN FLOW TIME STEP     1 STRESS PERIOD     2
      4 TOTAL ITERATIONS
     1 CALLS TO GCG PACKAGE FOR TRANSPORT TIME STEP   356 IN FLOW TIME STEP     1 STRESS PERIOD     2
      4 TOTAL ITERATIONS
     1 CALLS TO GCG PACKAGE FOR TRANSPORT TIME STEP   357 IN FLOW TIME STEP     1 STRESS PERIOD     2
      4 TOTAL ITERATIONS
     1 CALLS TO GCG PACKAGE FOR TRANSPORT TIME STEP   358 IN FLOW TIME STEP     1 STRESS PERIOD     2
      4 TOTAL ITERATIONS
     1 CALLS TO GCG PACKAGE FOR TRANSPORT TIME STEP   359 IN FLOW TIME STEP     1 STRESS PERIOD     2
      3 TOTAL ITERATIONS



 >>>>>>>>>>>>>>>>>>>>>>>>>>>>>>>>>>>>>>>>>>>>>>>>>>>>>>>FOR COMPONENT NO. 01<<<<<<<<<<<<<<<<<<<<<<<<<<<<<<<<<<<<<<<<<<<<<<<<<<<<<<<


                                            -------------------------------------------
                                                      TRANSPORT STEP NO.  359
                                            -------------------------------------------

 TOTAL ELAPSED TIME SINCE BEGINNING OF SIMULATION =   16.40000    D   
 .....................................................................

                     CUMULATIVE MASS BUDGETS AT END OF TRANSPORT STEP  359, TIME STEP    1, STRESS PERIOD    2
                     -----------------------------------------------------------------------------------------

                                                             IN                           OUT
                                                      ----------------             ----------------
                               CONSTANT CONCENTRATION:    0.000000                    0.000000    
                                        CONSTANT HEAD:    0.000000                  -0.4764428E-02
                                                WELLS:   0.1012116E-01                0.000000    
                               MASS STOR (FLOW MODEL):    0.000000                    0.000000    
                                MASS STORAGE (SOLUTE):   0.8105436E-05              -0.5364958E-02
                            ---------------------------------------------------------------------------
                                              [TOTAL]:   0.1012927E-01 KG           -0.1012939E-01 KG  

                                                          NET (IN - OUT):  -0.1201406E-06
                                                   DISCREPANCY (PERCENT):  -0.1186067E-02
     1 CALLS TO GCG PACKAGE FOR TRANSPORT TIME STEP   360 IN FLOW TIME STEP     1 STRESS PERIOD     2
      4 TOTAL ITERATIONS
     1 CALLS TO GCG PACKAGE FOR TRANSPORT TIME STEP   361 IN FLOW TIME STEP     1 STRESS PERIOD     2
      4 TOTAL ITERATIONS
     1 CALLS TO GCG PACKAGE FOR TRANSPORT TIME STEP   362 IN FLOW TIME STEP     1 STRESS PERIOD     2
      4 TOTAL ITERATIONS
     1 CALLS TO GCG PACKAGE FOR TRANSPORT TIME STEP   363 IN FLOW TIME STEP     1 STRESS PERIOD     2
      4 TOTAL ITERATIONS
     1 CALLS TO GCG PACKAGE FOR TRANSPORT TIME STEP   364 IN FLOW TIME STEP     1 STRESS PERIOD     2
      4 TOTAL ITERATIONS
     1 CALLS TO GCG PACKAGE FOR TRANSPORT TIME STEP   365 IN FLOW TIME STEP     1 STRESS PERIOD     2
      4 TOTAL ITERATIONS
     1 CALLS TO GCG PACKAGE FOR TRANSPORT TIME STEP   366 IN FLOW TIME STEP     1 STRESS PERIOD     2
      4 TOTAL ITERATIONS
     1 CALLS TO GCG PACKAGE FOR TRANSPORT TIME STEP   367 IN FLOW TIME STEP     1 STRESS PERIOD     2
      4 TOTAL ITERATIONS
     1 CALLS TO GCG PACKAGE FOR TRANSPORT TIME STEP   368 IN FLOW TIME STEP     1 STRESS PERIOD     2
      4 TOTAL ITERATIONS
     1 CALLS TO GCG PACKAGE FOR TRANSPORT TIME STEP   369 IN FLOW TIME STEP     1 STRESS PERIOD     2
      4 TOTAL ITERATIONS
     1 CALLS TO GCG PACKAGE FOR TRANSPORT TIME STEP   370 IN FLOW TIME STEP     1 STRESS PERIOD     2
      4 TOTAL ITERATIONS
     1 CALLS TO GCG PACKAGE FOR TRANSPORT TIME STEP   371 IN FLOW TIME STEP     1 STRESS PERIOD     2
      4 TOTAL ITERATIONS
     1 CALLS TO GCG PACKAGE FOR TRANSPORT TIME STEP   372 IN FLOW TIME STEP     1 STRESS PERIOD     2
      4 TOTAL ITERATIONS
     1 CALLS TO GCG PACKAGE FOR TRANSPORT TIME STEP   373 IN FLOW TIME STEP     1 STRESS PERIOD     2
      4 TOTAL ITERATIONS
     1 CALLS TO GCG PACKAGE FOR TRANSPORT TIME STEP   374 IN FLOW TIME STEP     1 STRESS PERIOD     2
      4 TOTAL ITERATIONS
     1 CALLS TO GCG PACKAGE FOR TRANSPORT TIME STEP   375 IN FLOW TIME STEP     1 STRESS PERIOD     2
      4 TOTAL ITERATIONS
     1 CALLS TO GCG PACKAGE FOR TRANSPORT TIME STEP   376 IN FLOW TIME STEP     1 STRESS PERIOD     2
      4 TOTAL ITERATIONS
     1 CALLS TO GCG PACKAGE FOR TRANSPORT TIME STEP   377 IN FLOW TIME STEP     1 STRESS PERIOD     2
      4 TOTAL ITERATIONS
     1 CALLS TO GCG PACKAGE FOR TRANSPORT TIME STEP   378 IN FLOW TIME STEP     1 STRESS PERIOD     2
      4 TOTAL ITERATIONS
     1 CALLS TO GCG PACKAGE FOR TRANSPORT TIME STEP   379 IN FLOW TIME STEP     1 STRESS PERIOD     2
      4 TOTAL ITERATIONS
     1 CALLS TO GCG PACKAGE FOR TRANSPORT TIME STEP   380 IN FLOW TIME STEP     1 STRESS PERIOD     2
      4 TOTAL ITERATIONS
     1 CALLS TO GCG PACKAGE FOR TRANSPORT TIME STEP   381 IN FLOW TIME STEP     1 STRESS PERIOD     2
      4 TOTAL ITERATIONS
     1 CALLS TO GCG PACKAGE FOR TRANSPORT TIME STEP   382 IN FLOW TIME STEP     1 STRESS PERIOD     2
      4 TOTAL ITERATIONS
     1 CALLS TO GCG PACKAGE FOR TRANSPORT TIME STEP   383 IN FLOW TIME STEP     1 STRESS PERIOD     2
      4 TOTAL ITERATIONS
     1 CALLS TO GCG PACKAGE FOR TRANSPORT TIME STEP   384 IN FLOW TIME STEP     1 STRESS PERIOD     2
      4 TOTAL ITERATIONS
     1 CALLS TO GCG PACKAGE FOR TRANSPORT TIME STEP   385 IN FLOW TIME STEP     1 STRESS PERIOD     2
      4 TOTAL ITERATIONS
     1 CALLS TO GCG PACKAGE FOR TRANSPORT TIME STEP   386 IN FLOW TIME STEP     1 STRESS PERIOD     2
      4 TOTAL ITERATIONS
     1 CALLS TO GCG PACKAGE FOR TRANSPORT TIME STEP   387 IN FLOW TIME STEP     1 STRESS PERIOD     2
      4 TOTAL ITERATIONS
     1 CALLS TO GCG PACKAGE FOR TRANSPORT TIME STEP   388 IN FLOW TIME STEP     1 STRESS PERIOD     2
      4 TOTAL ITERATIONS
     1 CALLS TO GCG PACKAGE FOR TRANSPORT TIME STEP   389 IN FLOW TIME STEP     1 STRESS PERIOD     2
      4 TOTAL ITERATIONS
     1 CALLS TO GCG PACKAGE FOR TRANSPORT TIME STEP   390 IN FLOW TIME STEP     1 STRESS PERIOD     2
      4 TOTAL ITERATIONS
     1 CALLS TO GCG PACKAGE FOR TRANSPORT TIME STEP   391 IN FLOW TIME STEP     1 STRESS PERIOD     2
      4 TOTAL ITERATIONS
     1 CALLS TO GCG PACKAGE FOR TRANSPORT TIME STEP   392 IN FLOW TIME STEP     1 STRESS PERIOD     2
      4 TOTAL ITERATIONS
     1 CALLS TO GCG PACKAGE FOR TRANSPORT TIME STEP   393 IN FLOW TIME STEP     1 STRESS PERIOD     2
      4 TOTAL ITERATIONS
     1 CALLS TO GCG PACKAGE FOR TRANSPORT TIME STEP   394 IN FLOW TIME STEP     1 STRESS PERIOD     2
      4 TOTAL ITERATIONS
     1 CALLS TO GCG PACKAGE FOR TRANSPORT TIME STEP   395 IN FLOW TIME STEP     1 STRESS PERIOD     2
      4 TOTAL ITERATIONS
     1 CALLS TO GCG PACKAGE FOR TRANSPORT TIME STEP   396 IN FLOW TIME STEP     1 STRESS PERIOD     2
      4 TOTAL ITERATIONS
     1 CALLS TO GCG PACKAGE FOR TRANSPORT TIME STEP   397 IN FLOW TIME STEP     1 STRESS PERIOD     2
      4 TOTAL ITERATIONS
     1 CALLS TO GCG PACKAGE FOR TRANSPORT TIME STEP   398 IN FLOW TIME STEP     1 STRESS PERIOD     2
      4 TOTAL ITERATIONS
     1 CALLS TO GCG PACKAGE FOR TRANSPORT TIME STEP   399 IN FLOW TIME STEP     1 STRESS PERIOD     2
      4 TOTAL ITERATIONS
     1 CALLS TO GCG PACKAGE FOR TRANSPORT TIME STEP   400 IN FLOW TIME STEP     1 STRESS PERIOD     2
      4 TOTAL ITERATIONS
     1 CALLS TO GCG PACKAGE FOR TRANSPORT TIME STEP   401 IN FLOW TIME STEP     1 STRESS PERIOD     2
      4 TOTAL ITERATIONS
     1 CALLS TO GCG PACKAGE FOR TRANSPORT TIME STEP   402 IN FLOW TIME STEP     1 STRESS PERIOD     2
      4 TOTAL ITERATIONS
     1 CALLS TO GCG PACKAGE FOR TRANSPORT TIME STEP   403 IN FLOW TIME STEP     1 STRESS PERIOD     2
      4 TOTAL ITERATIONS
     1 CALLS TO GCG PACKAGE FOR TRANSPORT TIME STEP   404 IN FLOW TIME STEP     1 STRESS PERIOD     2
      4 TOTAL ITERATIONS
     1 CALLS TO GCG PACKAGE FOR TRANSPORT TIME STEP   405 IN FLOW TIME STEP     1 STRESS PERIOD     2
      3 TOTAL ITERATIONS



 >>>>>>>>>>>>>>>>>>>>>>>>>>>>>>>>>>>>>>>>>>>>>>>>>>>>>>>FOR COMPONENT NO. 01<<<<<<<<<<<<<<<<<<<<<<<<<<<<<<<<<<<<<<<<<<<<<<<<<<<<<<<


                                            -------------------------------------------
                                                      TRANSPORT STEP NO.  405
                                            -------------------------------------------

 TOTAL ELAPSED TIME SINCE BEGINNING OF SIMULATION =   17.22000    D   
 .....................................................................

                     CUMULATIVE MASS BUDGETS AT END OF TRANSPORT STEP  405, TIME STEP    1, STRESS PERIOD    2
                     -----------------------------------------------------------------------------------------

                                                             IN                           OUT
                                                      ----------------             ----------------
                               CONSTANT CONCENTRATION:    0.000000                    0.000000    
                                        CONSTANT HEAD:    0.000000                  -0.5226983E-02
                                                WELLS:   0.1062725E-01                0.000000    
                               MASS STOR (FLOW MODEL):    0.000000                    0.000000    
                                MASS STORAGE (SOLUTE):   0.8151943E-05              -0.5408549E-02
                            ---------------------------------------------------------------------------
                                              [TOTAL]:   0.1063540E-01 KG           -0.1063553E-01 KG  

                                                          NET (IN - OUT):  -0.1322478E-06
                                                   DISCREPANCY (PERCENT):  -0.1243460E-02
     1 CALLS TO GCG PACKAGE FOR TRANSPORT TIME STEP   406 IN FLOW TIME STEP     1 STRESS PERIOD     2
      4 TOTAL ITERATIONS
     1 CALLS TO GCG PACKAGE FOR TRANSPORT TIME STEP   407 IN FLOW TIME STEP     1 STRESS PERIOD     2
      4 TOTAL ITERATIONS
     1 CALLS TO GCG PACKAGE FOR TRANSPORT TIME STEP   408 IN FLOW TIME STEP     1 STRESS PERIOD     2
      4 TOTAL ITERATIONS
     1 CALLS TO GCG PACKAGE FOR TRANSPORT TIME STEP   409 IN FLOW TIME STEP     1 STRESS PERIOD     2
      4 TOTAL ITERATIONS
     1 CALLS TO GCG PACKAGE FOR TRANSPORT TIME STEP   410 IN FLOW TIME STEP     1 STRESS PERIOD     2
      4 TOTAL ITERATIONS
     1 CALLS TO GCG PACKAGE FOR TRANSPORT TIME STEP   411 IN FLOW TIME STEP     1 STRESS PERIOD     2
      4 TOTAL ITERATIONS
     1 CALLS TO GCG PACKAGE FOR TRANSPORT TIME STEP   412 IN FLOW TIME STEP     1 STRESS PERIOD     2
      4 TOTAL ITERATIONS
     1 CALLS TO GCG PACKAGE FOR TRANSPORT TIME STEP   413 IN FLOW TIME STEP     1 STRESS PERIOD     2
      4 TOTAL ITERATIONS
     1 CALLS TO GCG PACKAGE FOR TRANSPORT TIME STEP   414 IN FLOW TIME STEP     1 STRESS PERIOD     2
      4 TOTAL ITERATIONS
     1 CALLS TO GCG PACKAGE FOR TRANSPORT TIME STEP   415 IN FLOW TIME STEP     1 STRESS PERIOD     2
      4 TOTAL ITERATIONS
     1 CALLS TO GCG PACKAGE FOR TRANSPORT TIME STEP   416 IN FLOW TIME STEP     1 STRESS PERIOD     2
      4 TOTAL ITERATIONS
     1 CALLS TO GCG PACKAGE FOR TRANSPORT TIME STEP   417 IN FLOW TIME STEP     1 STRESS PERIOD     2
      4 TOTAL ITERATIONS
     1 CALLS TO GCG PACKAGE FOR TRANSPORT TIME STEP   418 IN FLOW TIME STEP     1 STRESS PERIOD     2
      4 TOTAL ITERATIONS
     1 CALLS TO GCG PACKAGE FOR TRANSPORT TIME STEP   419 IN FLOW TIME STEP     1 STRESS PERIOD     2
      4 TOTAL ITERATIONS
     1 CALLS TO GCG PACKAGE FOR TRANSPORT TIME STEP   420 IN FLOW TIME STEP     1 STRESS PERIOD     2
      4 TOTAL ITERATIONS
     1 CALLS TO GCG PACKAGE FOR TRANSPORT TIME STEP   421 IN FLOW TIME STEP     1 STRESS PERIOD     2
      4 TOTAL ITERATIONS
     1 CALLS TO GCG PACKAGE FOR TRANSPORT TIME STEP   422 IN FLOW TIME STEP     1 STRESS PERIOD     2
      4 TOTAL ITERATIONS
     1 CALLS TO GCG PACKAGE FOR TRANSPORT TIME STEP   423 IN FLOW TIME STEP     1 STRESS PERIOD     2
      4 TOTAL ITERATIONS
     1 CALLS TO GCG PACKAGE FOR TRANSPORT TIME STEP   424 IN FLOW TIME STEP     1 STRESS PERIOD     2
      4 TOTAL ITERATIONS
     1 CALLS TO GCG PACKAGE FOR TRANSPORT TIME STEP   425 IN FLOW TIME STEP     1 STRESS PERIOD     2
      4 TOTAL ITERATIONS
     1 CALLS TO GCG PACKAGE FOR TRANSPORT TIME STEP   426 IN FLOW TIME STEP     1 STRESS PERIOD     2
      4 TOTAL ITERATIONS
     1 CALLS TO GCG PACKAGE FOR TRANSPORT TIME STEP   427 IN FLOW TIME STEP     1 STRESS PERIOD     2
      4 TOTAL ITERATIONS
     1 CALLS TO GCG PACKAGE FOR TRANSPORT TIME STEP   428 IN FLOW TIME STEP     1 STRESS PERIOD     2
      4 TOTAL ITERATIONS
     1 CALLS TO GCG PACKAGE FOR TRANSPORT TIME STEP   429 IN FLOW TIME STEP     1 STRESS PERIOD     2
      4 TOTAL ITERATIONS
     1 CALLS TO GCG PACKAGE FOR TRANSPORT TIME STEP   430 IN FLOW TIME STEP     1 STRESS PERIOD     2
      4 TOTAL ITERATIONS
     1 CALLS TO GCG PACKAGE FOR TRANSPORT TIME STEP   431 IN FLOW TIME STEP     1 STRESS PERIOD     2
      4 TOTAL ITERATIONS
     1 CALLS TO GCG PACKAGE FOR TRANSPORT TIME STEP   432 IN FLOW TIME STEP     1 STRESS PERIOD     2
      4 TOTAL ITERATIONS
     1 CALLS TO GCG PACKAGE FOR TRANSPORT TIME STEP   433 IN FLOW TIME STEP     1 STRESS PERIOD     2
      4 TOTAL ITERATIONS
     1 CALLS TO GCG PACKAGE FOR TRANSPORT TIME STEP   434 IN FLOW TIME STEP     1 STRESS PERIOD     2
      4 TOTAL ITERATIONS
     1 CALLS TO GCG PACKAGE FOR TRANSPORT TIME STEP   435 IN FLOW TIME STEP     1 STRESS PERIOD     2
      4 TOTAL ITERATIONS
     1 CALLS TO GCG PACKAGE FOR TRANSPORT TIME STEP   436 IN FLOW TIME STEP     1 STRESS PERIOD     2
      4 TOTAL ITERATIONS
     1 CALLS TO GCG PACKAGE FOR TRANSPORT TIME STEP   437 IN FLOW TIME STEP     1 STRESS PERIOD     2
      4 TOTAL ITERATIONS
     1 CALLS TO GCG PACKAGE FOR TRANSPORT TIME STEP   438 IN FLOW TIME STEP     1 STRESS PERIOD     2
      4 TOTAL ITERATIONS
     1 CALLS TO GCG PACKAGE FOR TRANSPORT TIME STEP   439 IN FLOW TIME STEP     1 STRESS PERIOD     2
      4 TOTAL ITERATIONS
     1 CALLS TO GCG PACKAGE FOR TRANSPORT TIME STEP   440 IN FLOW TIME STEP     1 STRESS PERIOD     2
      4 TOTAL ITERATIONS
     1 CALLS TO GCG PACKAGE FOR TRANSPORT TIME STEP   441 IN FLOW TIME STEP     1 STRESS PERIOD     2
      4 TOTAL ITERATIONS
     1 CALLS TO GCG PACKAGE FOR TRANSPORT TIME STEP   442 IN FLOW TIME STEP     1 STRESS PERIOD     2
      4 TOTAL ITERATIONS
     1 CALLS TO GCG PACKAGE FOR TRANSPORT TIME STEP   443 IN FLOW TIME STEP     1 STRESS PERIOD     2
      4 TOTAL ITERATIONS
     1 CALLS TO GCG PACKAGE FOR TRANSPORT TIME STEP   444 IN FLOW TIME STEP     1 STRESS PERIOD     2
      4 TOTAL ITERATIONS
     1 CALLS TO GCG PACKAGE FOR TRANSPORT TIME STEP   445 IN FLOW TIME STEP     1 STRESS PERIOD     2
      4 TOTAL ITERATIONS
     1 CALLS TO GCG PACKAGE FOR TRANSPORT TIME STEP   446 IN FLOW TIME STEP     1 STRESS PERIOD     2
      4 TOTAL ITERATIONS
     1 CALLS TO GCG PACKAGE FOR TRANSPORT TIME STEP   447 IN FLOW TIME STEP     1 STRESS PERIOD     2
      4 TOTAL ITERATIONS
     1 CALLS TO GCG PACKAGE FOR TRANSPORT TIME STEP   448 IN FLOW TIME STEP     1 STRESS PERIOD     2
      4 TOTAL ITERATIONS
     1 CALLS TO GCG PACKAGE FOR TRANSPORT TIME STEP   449 IN FLOW TIME STEP     1 STRESS PERIOD     2
      4 TOTAL ITERATIONS
     1 CALLS TO GCG PACKAGE FOR TRANSPORT TIME STEP   450 IN FLOW TIME STEP     1 STRESS PERIOD     2
      4 TOTAL ITERATIONS
     1 CALLS TO GCG PACKAGE FOR TRANSPORT TIME STEP   451 IN FLOW TIME STEP     1 STRESS PERIOD     2
      3 TOTAL ITERATIONS



 >>>>>>>>>>>>>>>>>>>>>>>>>>>>>>>>>>>>>>>>>>>>>>>>>>>>>>>FOR COMPONENT NO. 01<<<<<<<<<<<<<<<<<<<<<<<<<<<<<<<<<<<<<<<<<<<<<<<<<<<<<<<


                                            -------------------------------------------
                                                      TRANSPORT STEP NO.  451
                                            -------------------------------------------

 TOTAL ELAPSED TIME SINCE BEGINNING OF SIMULATION =   18.04000    D   
 .....................................................................

                     CUMULATIVE MASS BUDGETS AT END OF TRANSPORT STEP  451, TIME STEP    1, STRESS PERIOD    2
                     -----------------------------------------------------------------------------------------

                                                             IN                           OUT
                                                      ----------------             ----------------
                               CONSTANT CONCENTRATION:    0.000000                    0.000000    
                                        CONSTANT HEAD:    0.000000                  -0.5692316E-02
                                                WELLS:   0.1113334E-01                0.000000    
                               MASS STOR (FLOW MODEL):    0.000000                    0.000000    
                                MASS STORAGE (SOLUTE):   0.8191559E-05              -0.5449357E-02
                            ---------------------------------------------------------------------------
                                              [TOTAL]:   0.1114153E-01 KG           -0.1114167E-01 KG  

                                                          NET (IN - OUT):  -0.1434237E-06
                                                   DISCREPANCY (PERCENT):  -0.1287281E-02
     1 CALLS TO GCG PACKAGE FOR TRANSPORT TIME STEP   452 IN FLOW TIME STEP     1 STRESS PERIOD     2
      4 TOTAL ITERATIONS
     1 CALLS TO GCG PACKAGE FOR TRANSPORT TIME STEP   453 IN FLOW TIME STEP     1 STRESS PERIOD     2
      4 TOTAL ITERATIONS
     1 CALLS TO GCG PACKAGE FOR TRANSPORT TIME STEP   454 IN FLOW TIME STEP     1 STRESS PERIOD     2
      4 TOTAL ITERATIONS
     1 CALLS TO GCG PACKAGE FOR TRANSPORT TIME STEP   455 IN FLOW TIME STEP     1 STRESS PERIOD     2
      4 TOTAL ITERATIONS
     1 CALLS TO GCG PACKAGE FOR TRANSPORT TIME STEP   456 IN FLOW TIME STEP     1 STRESS PERIOD     2
      4 TOTAL ITERATIONS
     1 CALLS TO GCG PACKAGE FOR TRANSPORT TIME STEP   457 IN FLOW TIME STEP     1 STRESS PERIOD     2
      4 TOTAL ITERATIONS
     1 CALLS TO GCG PACKAGE FOR TRANSPORT TIME STEP   458 IN FLOW TIME STEP     1 STRESS PERIOD     2
      4 TOTAL ITERATIONS
     1 CALLS TO GCG PACKAGE FOR TRANSPORT TIME STEP   459 IN FLOW TIME STEP     1 STRESS PERIOD     2
      4 TOTAL ITERATIONS
     1 CALLS TO GCG PACKAGE FOR TRANSPORT TIME STEP   460 IN FLOW TIME STEP     1 STRESS PERIOD     2
      4 TOTAL ITERATIONS
     1 CALLS TO GCG PACKAGE FOR TRANSPORT TIME STEP   461 IN FLOW TIME STEP     1 STRESS PERIOD     2
      4 TOTAL ITERATIONS
     1 CALLS TO GCG PACKAGE FOR TRANSPORT TIME STEP   462 IN FLOW TIME STEP     1 STRESS PERIOD     2
      4 TOTAL ITERATIONS
     1 CALLS TO GCG PACKAGE FOR TRANSPORT TIME STEP   463 IN FLOW TIME STEP     1 STRESS PERIOD     2
      4 TOTAL ITERATIONS
     1 CALLS TO GCG PACKAGE FOR TRANSPORT TIME STEP   464 IN FLOW TIME STEP     1 STRESS PERIOD     2
      4 TOTAL ITERATIONS
     1 CALLS TO GCG PACKAGE FOR TRANSPORT TIME STEP   465 IN FLOW TIME STEP     1 STRESS PERIOD     2
      4 TOTAL ITERATIONS
     1 CALLS TO GCG PACKAGE FOR TRANSPORT TIME STEP   466 IN FLOW TIME STEP     1 STRESS PERIOD     2
      4 TOTAL ITERATIONS
     1 CALLS TO GCG PACKAGE FOR TRANSPORT TIME STEP   467 IN FLOW TIME STEP     1 STRESS PERIOD     2
      4 TOTAL ITERATIONS
     1 CALLS TO GCG PACKAGE FOR TRANSPORT TIME STEP   468 IN FLOW TIME STEP     1 STRESS PERIOD     2
      4 TOTAL ITERATIONS
     1 CALLS TO GCG PACKAGE FOR TRANSPORT TIME STEP   469 IN FLOW TIME STEP     1 STRESS PERIOD     2
      4 TOTAL ITERATIONS
     1 CALLS TO GCG PACKAGE FOR TRANSPORT TIME STEP   470 IN FLOW TIME STEP     1 STRESS PERIOD     2
      4 TOTAL ITERATIONS
     1 CALLS TO GCG PACKAGE FOR TRANSPORT TIME STEP   471 IN FLOW TIME STEP     1 STRESS PERIOD     2
      4 TOTAL ITERATIONS
     1 CALLS TO GCG PACKAGE FOR TRANSPORT TIME STEP   472 IN FLOW TIME STEP     1 STRESS PERIOD     2
      4 TOTAL ITERATIONS
     1 CALLS TO GCG PACKAGE FOR TRANSPORT TIME STEP   473 IN FLOW TIME STEP     1 STRESS PERIOD     2
      4 TOTAL ITERATIONS
     1 CALLS TO GCG PACKAGE FOR TRANSPORT TIME STEP   474 IN FLOW TIME STEP     1 STRESS PERIOD     2
      4 TOTAL ITERATIONS
     1 CALLS TO GCG PACKAGE FOR TRANSPORT TIME STEP   475 IN FLOW TIME STEP     1 STRESS PERIOD     2
      4 TOTAL ITERATIONS
     1 CALLS TO GCG PACKAGE FOR TRANSPORT TIME STEP   476 IN FLOW TIME STEP     1 STRESS PERIOD     2
      4 TOTAL ITERATIONS
     1 CALLS TO GCG PACKAGE FOR TRANSPORT TIME STEP   477 IN FLOW TIME STEP     1 STRESS PERIOD     2
      4 TOTAL ITERATIONS
     1 CALLS TO GCG PACKAGE FOR TRANSPORT TIME STEP   478 IN FLOW TIME STEP     1 STRESS PERIOD     2
      4 TOTAL ITERATIONS
     1 CALLS TO GCG PACKAGE FOR TRANSPORT TIME STEP   479 IN FLOW TIME STEP     1 STRESS PERIOD     2
      4 TOTAL ITERATIONS
     1 CALLS TO GCG PACKAGE FOR TRANSPORT TIME STEP   480 IN FLOW TIME STEP     1 STRESS PERIOD     2
      4 TOTAL ITERATIONS
     1 CALLS TO GCG PACKAGE FOR TRANSPORT TIME STEP   481 IN FLOW TIME STEP     1 STRESS PERIOD     2
      4 TOTAL ITERATIONS
     1 CALLS TO GCG PACKAGE FOR TRANSPORT TIME STEP   482 IN FLOW TIME STEP     1 STRESS PERIOD     2
      4 TOTAL ITERATIONS
     1 CALLS TO GCG PACKAGE FOR TRANSPORT TIME STEP   483 IN FLOW TIME STEP     1 STRESS PERIOD     2
      4 TOTAL ITERATIONS
     1 CALLS TO GCG PACKAGE FOR TRANSPORT TIME STEP   484 IN FLOW TIME STEP     1 STRESS PERIOD     2
      4 TOTAL ITERATIONS
     1 CALLS TO GCG PACKAGE FOR TRANSPORT TIME STEP   485 IN FLOW TIME STEP     1 STRESS PERIOD     2
      4 TOTAL ITERATIONS
     1 CALLS TO GCG PACKAGE FOR TRANSPORT TIME STEP   486 IN FLOW TIME STEP     1 STRESS PERIOD     2
      4 TOTAL ITERATIONS
     1 CALLS TO GCG PACKAGE FOR TRANSPORT TIME STEP   487 IN FLOW TIME STEP     1 STRESS PERIOD     2
      4 TOTAL ITERATIONS
     1 CALLS TO GCG PACKAGE FOR TRANSPORT TIME STEP   488 IN FLOW TIME STEP     1 STRESS PERIOD     2
      4 TOTAL ITERATIONS
     1 CALLS TO GCG PACKAGE FOR TRANSPORT TIME STEP   489 IN FLOW TIME STEP     1 STRESS PERIOD     2
      4 TOTAL ITERATIONS
     1 CALLS TO GCG PACKAGE FOR TRANSPORT TIME STEP   490 IN FLOW TIME STEP     1 STRESS PERIOD     2
      4 TOTAL ITERATIONS
     1 CALLS TO GCG PACKAGE FOR TRANSPORT TIME STEP   491 IN FLOW TIME STEP     1 STRESS PERIOD     2
      4 TOTAL ITERATIONS
     1 CALLS TO GCG PACKAGE FOR TRANSPORT TIME STEP   492 IN FLOW TIME STEP     1 STRESS PERIOD     2
      4 TOTAL ITERATIONS
     1 CALLS TO GCG PACKAGE FOR TRANSPORT TIME STEP   493 IN FLOW TIME STEP     1 STRESS PERIOD     2
      4 TOTAL ITERATIONS
     1 CALLS TO GCG PACKAGE FOR TRANSPORT TIME STEP   494 IN FLOW TIME STEP     1 STRESS PERIOD     2
      4 TOTAL ITERATIONS
     1 CALLS TO GCG PACKAGE FOR TRANSPORT TIME STEP   495 IN FLOW TIME STEP     1 STRESS PERIOD     2
      4 TOTAL ITERATIONS
     1 CALLS TO GCG PACKAGE FOR TRANSPORT TIME STEP   496 IN FLOW TIME STEP     1 STRESS PERIOD     2
      4 TOTAL ITERATIONS
     1 CALLS TO GCG PACKAGE FOR TRANSPORT TIME STEP   497 IN FLOW TIME STEP     1 STRESS PERIOD     2
      3 TOTAL ITERATIONS



 >>>>>>>>>>>>>>>>>>>>>>>>>>>>>>>>>>>>>>>>>>>>>>>>>>>>>>>FOR COMPONENT NO. 01<<<<<<<<<<<<<<<<<<<<<<<<<<<<<<<<<<<<<<<<<<<<<<<<<<<<<<<


                                            -------------------------------------------
                                                      TRANSPORT STEP NO.  497
                                            -------------------------------------------

 TOTAL ELAPSED TIME SINCE BEGINNING OF SIMULATION =   18.86000    D   
 .....................................................................

                     CUMULATIVE MASS BUDGETS AT END OF TRANSPORT STEP  497, TIME STEP    1, STRESS PERIOD    2
                     -----------------------------------------------------------------------------------------

                                                             IN                           OUT
                                                      ----------------             ----------------
                               CONSTANT CONCENTRATION:    0.000000                    0.000000    
                                        CONSTANT HEAD:    0.000000                  -0.6160211E-02
                                                WELLS:   0.1163942E-01                0.000000    
                               MASS STOR (FLOW MODEL):    0.000000                    0.000000    
                                MASS STORAGE (SOLUTE):   0.8226215E-05              -0.5487596E-02
                            ---------------------------------------------------------------------------
                                              [TOTAL]:   0.1164765E-01 KG           -0.1164781E-01 KG  

                                                          NET (IN - OUT):  -0.1564622E-06
                                                   DISCREPANCY (PERCENT):  -0.1343285E-02
     1 CALLS TO GCG PACKAGE FOR TRANSPORT TIME STEP   498 IN FLOW TIME STEP     1 STRESS PERIOD     2
      4 TOTAL ITERATIONS
     1 CALLS TO GCG PACKAGE FOR TRANSPORT TIME STEP   499 IN FLOW TIME STEP     1 STRESS PERIOD     2
      4 TOTAL ITERATIONS
     1 CALLS TO GCG PACKAGE FOR TRANSPORT TIME STEP   500 IN FLOW TIME STEP     1 STRESS PERIOD     2
      4 TOTAL ITERATIONS
     1 CALLS TO GCG PACKAGE FOR TRANSPORT TIME STEP   501 IN FLOW TIME STEP     1 STRESS PERIOD     2
      4 TOTAL ITERATIONS
     1 CALLS TO GCG PACKAGE FOR TRANSPORT TIME STEP   502 IN FLOW TIME STEP     1 STRESS PERIOD     2
      4 TOTAL ITERATIONS
     1 CALLS TO GCG PACKAGE FOR TRANSPORT TIME STEP   503 IN FLOW TIME STEP     1 STRESS PERIOD     2
      4 TOTAL ITERATIONS
     1 CALLS TO GCG PACKAGE FOR TRANSPORT TIME STEP   504 IN FLOW TIME STEP     1 STRESS PERIOD     2
      4 TOTAL ITERATIONS
     1 CALLS TO GCG PACKAGE FOR TRANSPORT TIME STEP   505 IN FLOW TIME STEP     1 STRESS PERIOD     2
      4 TOTAL ITERATIONS
     1 CALLS TO GCG PACKAGE FOR TRANSPORT TIME STEP   506 IN FLOW TIME STEP     1 STRESS PERIOD     2
      4 TOTAL ITERATIONS
     1 CALLS TO GCG PACKAGE FOR TRANSPORT TIME STEP   507 IN FLOW TIME STEP     1 STRESS PERIOD     2
      4 TOTAL ITERATIONS
     1 CALLS TO GCG PACKAGE FOR TRANSPORT TIME STEP   508 IN FLOW TIME STEP     1 STRESS PERIOD     2
      4 TOTAL ITERATIONS
     1 CALLS TO GCG PACKAGE FOR TRANSPORT TIME STEP   509 IN FLOW TIME STEP     1 STRESS PERIOD     2
      4 TOTAL ITERATIONS
     1 CALLS TO GCG PACKAGE FOR TRANSPORT TIME STEP   510 IN FLOW TIME STEP     1 STRESS PERIOD     2
      4 TOTAL ITERATIONS
     1 CALLS TO GCG PACKAGE FOR TRANSPORT TIME STEP   511 IN FLOW TIME STEP     1 STRESS PERIOD     2
      4 TOTAL ITERATIONS
     1 CALLS TO GCG PACKAGE FOR TRANSPORT TIME STEP   512 IN FLOW TIME STEP     1 STRESS PERIOD     2
      4 TOTAL ITERATIONS
     1 CALLS TO GCG PACKAGE FOR TRANSPORT TIME STEP   513 IN FLOW TIME STEP     1 STRESS PERIOD     2
      4 TOTAL ITERATIONS
     1 CALLS TO GCG PACKAGE FOR TRANSPORT TIME STEP   514 IN FLOW TIME STEP     1 STRESS PERIOD     2
      4 TOTAL ITERATIONS
     1 CALLS TO GCG PACKAGE FOR TRANSPORT TIME STEP   515 IN FLOW TIME STEP     1 STRESS PERIOD     2
      4 TOTAL ITERATIONS
     1 CALLS TO GCG PACKAGE FOR TRANSPORT TIME STEP   516 IN FLOW TIME STEP     1 STRESS PERIOD     2
      4 TOTAL ITERATIONS
     1 CALLS TO GCG PACKAGE FOR TRANSPORT TIME STEP   517 IN FLOW TIME STEP     1 STRESS PERIOD     2
      4 TOTAL ITERATIONS
     1 CALLS TO GCG PACKAGE FOR TRANSPORT TIME STEP   518 IN FLOW TIME STEP     1 STRESS PERIOD     2
      4 TOTAL ITERATIONS
     1 CALLS TO GCG PACKAGE FOR TRANSPORT TIME STEP   519 IN FLOW TIME STEP     1 STRESS PERIOD     2
      4 TOTAL ITERATIONS
     1 CALLS TO GCG PACKAGE FOR TRANSPORT TIME STEP   520 IN FLOW TIME STEP     1 STRESS PERIOD     2
      4 TOTAL ITERATIONS
     1 CALLS TO GCG PACKAGE FOR TRANSPORT TIME STEP   521 IN FLOW TIME STEP     1 STRESS PERIOD     2
      4 TOTAL ITERATIONS
     1 CALLS TO GCG PACKAGE FOR TRANSPORT TIME STEP   522 IN FLOW TIME STEP     1 STRESS PERIOD     2
      4 TOTAL ITERATIONS
     1 CALLS TO GCG PACKAGE FOR TRANSPORT TIME STEP   523 IN FLOW TIME STEP     1 STRESS PERIOD     2
      4 TOTAL ITERATIONS
     1 CALLS TO GCG PACKAGE FOR TRANSPORT TIME STEP   524 IN FLOW TIME STEP     1 STRESS PERIOD     2
      4 TOTAL ITERATIONS
     1 CALLS TO GCG PACKAGE FOR TRANSPORT TIME STEP   525 IN FLOW TIME STEP     1 STRESS PERIOD     2
      4 TOTAL ITERATIONS
     1 CALLS TO GCG PACKAGE FOR TRANSPORT TIME STEP   526 IN FLOW TIME STEP     1 STRESS PERIOD     2
      4 TOTAL ITERATIONS
     1 CALLS TO GCG PACKAGE FOR TRANSPORT TIME STEP   527 IN FLOW TIME STEP     1 STRESS PERIOD     2
      4 TOTAL ITERATIONS
     1 CALLS TO GCG PACKAGE FOR TRANSPORT TIME STEP   528 IN FLOW TIME STEP     1 STRESS PERIOD     2
      4 TOTAL ITERATIONS
     1 CALLS TO GCG PACKAGE FOR TRANSPORT TIME STEP   529 IN FLOW TIME STEP     1 STRESS PERIOD     2
      4 TOTAL ITERATIONS
     1 CALLS TO GCG PACKAGE FOR TRANSPORT TIME STEP   530 IN FLOW TIME STEP     1 STRESS PERIOD     2
      4 TOTAL ITERATIONS
     1 CALLS TO GCG PACKAGE FOR TRANSPORT TIME STEP   531 IN FLOW TIME STEP     1 STRESS PERIOD     2
      4 TOTAL ITERATIONS
     1 CALLS TO GCG PACKAGE FOR TRANSPORT TIME STEP   532 IN FLOW TIME STEP     1 STRESS PERIOD     2
      4 TOTAL ITERATIONS
     1 CALLS TO GCG PACKAGE FOR TRANSPORT TIME STEP   533 IN FLOW TIME STEP     1 STRESS PERIOD     2
      4 TOTAL ITERATIONS
     1 CALLS TO GCG PACKAGE FOR TRANSPORT TIME STEP   534 IN FLOW TIME STEP     1 STRESS PERIOD     2
      4 TOTAL ITERATIONS
     1 CALLS TO GCG PACKAGE FOR TRANSPORT TIME STEP   535 IN FLOW TIME STEP     1 STRESS PERIOD     2
      4 TOTAL ITERATIONS
     1 CALLS TO GCG PACKAGE FOR TRANSPORT TIME STEP   536 IN FLOW TIME STEP     1 STRESS PERIOD     2
      4 TOTAL ITERATIONS
     1 CALLS TO GCG PACKAGE FOR TRANSPORT TIME STEP   537 IN FLOW TIME STEP     1 STRESS PERIOD     2
      4 TOTAL ITERATIONS
     1 CALLS TO GCG PACKAGE FOR TRANSPORT TIME STEP   538 IN FLOW TIME STEP     1 STRESS PERIOD     2
      4 TOTAL ITERATIONS
     1 CALLS TO GCG PACKAGE FOR TRANSPORT TIME STEP   539 IN FLOW TIME STEP     1 STRESS PERIOD     2
      4 TOTAL ITERATIONS
     1 CALLS TO GCG PACKAGE FOR TRANSPORT TIME STEP   540 IN FLOW TIME STEP     1 STRESS PERIOD     2
      4 TOTAL ITERATIONS
     1 CALLS TO GCG PACKAGE FOR TRANSPORT TIME STEP   541 IN FLOW TIME STEP     1 STRESS PERIOD     2
      4 TOTAL ITERATIONS
     1 CALLS TO GCG PACKAGE FOR TRANSPORT TIME STEP   542 IN FLOW TIME STEP     1 STRESS PERIOD     2
      4 TOTAL ITERATIONS
     1 CALLS TO GCG PACKAGE FOR TRANSPORT TIME STEP   543 IN FLOW TIME STEP     1 STRESS PERIOD     2
      3 TOTAL ITERATIONS



 >>>>>>>>>>>>>>>>>>>>>>>>>>>>>>>>>>>>>>>>>>>>>>>>>>>>>>>FOR COMPONENT NO. 01<<<<<<<<<<<<<<<<<<<<<<<<<<<<<<<<<<<<<<<<<<<<<<<<<<<<<<<


                                            -------------------------------------------
                                                      TRANSPORT STEP NO.  543
                                            -------------------------------------------

 TOTAL ELAPSED TIME SINCE BEGINNING OF SIMULATION =   19.68000    D   
 .....................................................................

                     CUMULATIVE MASS BUDGETS AT END OF TRANSPORT STEP  543, TIME STEP    1, STRESS PERIOD    2
                     -----------------------------------------------------------------------------------------

                                                             IN                           OUT
                                                      ----------------             ----------------
                               CONSTANT CONCENTRATION:    0.000000                    0.000000    
                                        CONSTANT HEAD:    0.000000                  -0.6630483E-02
                                                WELLS:   0.1214551E-01                0.000000    
                               MASS STOR (FLOW MODEL):    0.000000                    0.000000    
                                MASS STORAGE (SOLUTE):   0.8259330E-05              -0.5523454E-02
                            ---------------------------------------------------------------------------
                                              [TOTAL]:   0.1215377E-01 KG           -0.1215394E-01 KG  

                                                          NET (IN - OUT):  -0.1667067E-06
                                                   DISCREPANCY (PERCENT):  -0.1371637E-02
     1 CALLS TO GCG PACKAGE FOR TRANSPORT TIME STEP   544 IN FLOW TIME STEP     1 STRESS PERIOD     2
      4 TOTAL ITERATIONS
     1 CALLS TO GCG PACKAGE FOR TRANSPORT TIME STEP   545 IN FLOW TIME STEP     1 STRESS PERIOD     2
      4 TOTAL ITERATIONS
     1 CALLS TO GCG PACKAGE FOR TRANSPORT TIME STEP   546 IN FLOW TIME STEP     1 STRESS PERIOD     2
      4 TOTAL ITERATIONS
     1 CALLS TO GCG PACKAGE FOR TRANSPORT TIME STEP   547 IN FLOW TIME STEP     1 STRESS PERIOD     2
      4 TOTAL ITERATIONS
     1 CALLS TO GCG PACKAGE FOR TRANSPORT TIME STEP   548 IN FLOW TIME STEP     1 STRESS PERIOD     2
      4 TOTAL ITERATIONS
     1 CALLS TO GCG PACKAGE FOR TRANSPORT TIME STEP   549 IN FLOW TIME STEP     1 STRESS PERIOD     2
      4 TOTAL ITERATIONS
     1 CALLS TO GCG PACKAGE FOR TRANSPORT TIME STEP   550 IN FLOW TIME STEP     1 STRESS PERIOD     2
      4 TOTAL ITERATIONS
     1 CALLS TO GCG PACKAGE FOR TRANSPORT TIME STEP   551 IN FLOW TIME STEP     1 STRESS PERIOD     2
      4 TOTAL ITERATIONS
     1 CALLS TO GCG PACKAGE FOR TRANSPORT TIME STEP   552 IN FLOW TIME STEP     1 STRESS PERIOD     2
      4 TOTAL ITERATIONS
     1 CALLS TO GCG PACKAGE FOR TRANSPORT TIME STEP   553 IN FLOW TIME STEP     1 STRESS PERIOD     2
      4 TOTAL ITERATIONS
     1 CALLS TO GCG PACKAGE FOR TRANSPORT TIME STEP   554 IN FLOW TIME STEP     1 STRESS PERIOD     2
      4 TOTAL ITERATIONS
     1 CALLS TO GCG PACKAGE FOR TRANSPORT TIME STEP   555 IN FLOW TIME STEP     1 STRESS PERIOD     2
      4 TOTAL ITERATIONS
     1 CALLS TO GCG PACKAGE FOR TRANSPORT TIME STEP   556 IN FLOW TIME STEP     1 STRESS PERIOD     2
      4 TOTAL ITERATIONS
     1 CALLS TO GCG PACKAGE FOR TRANSPORT TIME STEP   557 IN FLOW TIME STEP     1 STRESS PERIOD     2
      4 TOTAL ITERATIONS
     1 CALLS TO GCG PACKAGE FOR TRANSPORT TIME STEP   558 IN FLOW TIME STEP     1 STRESS PERIOD     2
      4 TOTAL ITERATIONS
     1 CALLS TO GCG PACKAGE FOR TRANSPORT TIME STEP   559 IN FLOW TIME STEP     1 STRESS PERIOD     2
      4 TOTAL ITERATIONS
     1 CALLS TO GCG PACKAGE FOR TRANSPORT TIME STEP   560 IN FLOW TIME STEP     1 STRESS PERIOD     2
      4 TOTAL ITERATIONS
     1 CALLS TO GCG PACKAGE FOR TRANSPORT TIME STEP   561 IN FLOW TIME STEP     1 STRESS PERIOD     2
      4 TOTAL ITERATIONS
     1 CALLS TO GCG PACKAGE FOR TRANSPORT TIME STEP   562 IN FLOW TIME STEP     1 STRESS PERIOD     2
      4 TOTAL ITERATIONS
     1 CALLS TO GCG PACKAGE FOR TRANSPORT TIME STEP   563 IN FLOW TIME STEP     1 STRESS PERIOD     2
      4 TOTAL ITERATIONS
     1 CALLS TO GCG PACKAGE FOR TRANSPORT TIME STEP   564 IN FLOW TIME STEP     1 STRESS PERIOD     2
      4 TOTAL ITERATIONS
     1 CALLS TO GCG PACKAGE FOR TRANSPORT TIME STEP   565 IN FLOW TIME STEP     1 STRESS PERIOD     2
      4 TOTAL ITERATIONS
     1 CALLS TO GCG PACKAGE FOR TRANSPORT TIME STEP   566 IN FLOW TIME STEP     1 STRESS PERIOD     2
      4 TOTAL ITERATIONS
     1 CALLS TO GCG PACKAGE FOR TRANSPORT TIME STEP   567 IN FLOW TIME STEP     1 STRESS PERIOD     2
      4 TOTAL ITERATIONS
     1 CALLS TO GCG PACKAGE FOR TRANSPORT TIME STEP   568 IN FLOW TIME STEP     1 STRESS PERIOD     2
      4 TOTAL ITERATIONS
     1 CALLS TO GCG PACKAGE FOR TRANSPORT TIME STEP   569 IN FLOW TIME STEP     1 STRESS PERIOD     2
      4 TOTAL ITERATIONS
     1 CALLS TO GCG PACKAGE FOR TRANSPORT TIME STEP   570 IN FLOW TIME STEP     1 STRESS PERIOD     2
      4 TOTAL ITERATIONS
     1 CALLS TO GCG PACKAGE FOR TRANSPORT TIME STEP   571 IN FLOW TIME STEP     1 STRESS PERIOD     2
      4 TOTAL ITERATIONS
     1 CALLS TO GCG PACKAGE FOR TRANSPORT TIME STEP   572 IN FLOW TIME STEP     1 STRESS PERIOD     2
      4 TOTAL ITERATIONS
     1 CALLS TO GCG PACKAGE FOR TRANSPORT TIME STEP   573 IN FLOW TIME STEP     1 STRESS PERIOD     2
      4 TOTAL ITERATIONS
     1 CALLS TO GCG PACKAGE FOR TRANSPORT TIME STEP   574 IN FLOW TIME STEP     1 STRESS PERIOD     2
      4 TOTAL ITERATIONS
     1 CALLS TO GCG PACKAGE FOR TRANSPORT TIME STEP   575 IN FLOW TIME STEP     1 STRESS PERIOD     2
      4 TOTAL ITERATIONS
     1 CALLS TO GCG PACKAGE FOR TRANSPORT TIME STEP   576 IN FLOW TIME STEP     1 STRESS PERIOD     2
      4 TOTAL ITERATIONS
     1 CALLS TO GCG PACKAGE FOR TRANSPORT TIME STEP   577 IN FLOW TIME STEP     1 STRESS PERIOD     2
      4 TOTAL ITERATIONS
     1 CALLS TO GCG PACKAGE FOR TRANSPORT TIME STEP   578 IN FLOW TIME STEP     1 STRESS PERIOD     2
      4 TOTAL ITERATIONS
     1 CALLS TO GCG PACKAGE FOR TRANSPORT TIME STEP   579 IN FLOW TIME STEP     1 STRESS PERIOD     2
      4 TOTAL ITERATIONS
     1 CALLS TO GCG PACKAGE FOR TRANSPORT TIME STEP   580 IN FLOW TIME STEP     1 STRESS PERIOD     2
      4 TOTAL ITERATIONS
     1 CALLS TO GCG PACKAGE FOR TRANSPORT TIME STEP   581 IN FLOW TIME STEP     1 STRESS PERIOD     2
      4 TOTAL ITERATIONS
     1 CALLS TO GCG PACKAGE FOR TRANSPORT TIME STEP   582 IN FLOW TIME STEP     1 STRESS PERIOD     2
      4 TOTAL ITERATIONS
     1 CALLS TO GCG PACKAGE FOR TRANSPORT TIME STEP   583 IN FLOW TIME STEP     1 STRESS PERIOD     2
      4 TOTAL ITERATIONS
     1 CALLS TO GCG PACKAGE FOR TRANSPORT TIME STEP   584 IN FLOW TIME STEP     1 STRESS PERIOD     2
      4 TOTAL ITERATIONS
     1 CALLS TO GCG PACKAGE FOR TRANSPORT TIME STEP   585 IN FLOW TIME STEP     1 STRESS PERIOD     2
      4 TOTAL ITERATIONS
     1 CALLS TO GCG PACKAGE FOR TRANSPORT TIME STEP   586 IN FLOW TIME STEP     1 STRESS PERIOD     2
      4 TOTAL ITERATIONS
     1 CALLS TO GCG PACKAGE FOR TRANSPORT TIME STEP   587 IN FLOW TIME STEP     1 STRESS PERIOD     2
      4 TOTAL ITERATIONS
     1 CALLS TO GCG PACKAGE FOR TRANSPORT TIME STEP   588 IN FLOW TIME STEP     1 STRESS PERIOD     2
      4 TOTAL ITERATIONS
     1 CALLS TO GCG PACKAGE FOR TRANSPORT TIME STEP   589 IN FLOW TIME STEP     1 STRESS PERIOD     2
      3 TOTAL ITERATIONS



 >>>>>>>>>>>>>>>>>>>>>>>>>>>>>>>>>>>>>>>>>>>>>>>>>>>>>>>FOR COMPONENT NO. 01<<<<<<<<<<<<<<<<<<<<<<<<<<<<<<<<<<<<<<<<<<<<<<<<<<<<<<<


                                            -------------------------------------------
                                                      TRANSPORT STEP NO.  589
                                            -------------------------------------------

 TOTAL ELAPSED TIME SINCE BEGINNING OF SIMULATION =   20.50000    D   
 .....................................................................

                     CUMULATIVE MASS BUDGETS AT END OF TRANSPORT STEP  589, TIME STEP    1, STRESS PERIOD    2
                     -----------------------------------------------------------------------------------------

                                                             IN                           OUT
                                                      ----------------             ----------------
                               CONSTANT CONCENTRATION:    0.000000                    0.000000    
                                        CONSTANT HEAD:    0.000000                  -0.7102971E-02
                                                WELLS:   0.1265160E-01                0.000000    
                               MASS STOR (FLOW MODEL):    0.000000                    0.000000    
                                MASS STORAGE (SOLUTE):   0.8292854E-05              -0.5557098E-02
                            ---------------------------------------------------------------------------
                                              [TOTAL]:   0.1265989E-01 KG           -0.1266007E-01 KG  

                                                          NET (IN - OUT):  -0.1778826E-06
                                                   DISCREPANCY (PERCENT):  -0.1405078E-02
     1 CALLS TO GCG PACKAGE FOR TRANSPORT TIME STEP   590 IN FLOW TIME STEP     1 STRESS PERIOD     2
      4 TOTAL ITERATIONS
     1 CALLS TO GCG PACKAGE FOR TRANSPORT TIME STEP   591 IN FLOW TIME STEP     1 STRESS PERIOD     2
      4 TOTAL ITERATIONS
     1 CALLS TO GCG PACKAGE FOR TRANSPORT TIME STEP   592 IN FLOW TIME STEP     1 STRESS PERIOD     2
      4 TOTAL ITERATIONS
     1 CALLS TO GCG PACKAGE FOR TRANSPORT TIME STEP   593 IN FLOW TIME STEP     1 STRESS PERIOD     2
      4 TOTAL ITERATIONS
     1 CALLS TO GCG PACKAGE FOR TRANSPORT TIME STEP   594 IN FLOW TIME STEP     1 STRESS PERIOD     2
      4 TOTAL ITERATIONS
     1 CALLS TO GCG PACKAGE FOR TRANSPORT TIME STEP   595 IN FLOW TIME STEP     1 STRESS PERIOD     2
      4 TOTAL ITERATIONS
     1 CALLS TO GCG PACKAGE FOR TRANSPORT TIME STEP   596 IN FLOW TIME STEP     1 STRESS PERIOD     2
      4 TOTAL ITERATIONS
     1 CALLS TO GCG PACKAGE FOR TRANSPORT TIME STEP   597 IN FLOW TIME STEP     1 STRESS PERIOD     2
      4 TOTAL ITERATIONS
     1 CALLS TO GCG PACKAGE FOR TRANSPORT TIME STEP   598 IN FLOW TIME STEP     1 STRESS PERIOD     2
      4 TOTAL ITERATIONS
     1 CALLS TO GCG PACKAGE FOR TRANSPORT TIME STEP   599 IN FLOW TIME STEP     1 STRESS PERIOD     2
      4 TOTAL ITERATIONS
     1 CALLS TO GCG PACKAGE FOR TRANSPORT TIME STEP   600 IN FLOW TIME STEP     1 STRESS PERIOD     2
      4 TOTAL ITERATIONS
     1 CALLS TO GCG PACKAGE FOR TRANSPORT TIME STEP   601 IN FLOW TIME STEP     1 STRESS PERIOD     2
      4 TOTAL ITERATIONS
     1 CALLS TO GCG PACKAGE FOR TRANSPORT TIME STEP   602 IN FLOW TIME STEP     1 STRESS PERIOD     2
      4 TOTAL ITERATIONS
     1 CALLS TO GCG PACKAGE FOR TRANSPORT TIME STEP   603 IN FLOW TIME STEP     1 STRESS PERIOD     2
      4 TOTAL ITERATIONS
     1 CALLS TO GCG PACKAGE FOR TRANSPORT TIME STEP   604 IN FLOW TIME STEP     1 STRESS PERIOD     2
      4 TOTAL ITERATIONS
     1 CALLS TO GCG PACKAGE FOR TRANSPORT TIME STEP   605 IN FLOW TIME STEP     1 STRESS PERIOD     2
      4 TOTAL ITERATIONS
     1 CALLS TO GCG PACKAGE FOR TRANSPORT TIME STEP   606 IN FLOW TIME STEP     1 STRESS PERIOD     2
      4 TOTAL ITERATIONS
     1 CALLS TO GCG PACKAGE FOR TRANSPORT TIME STEP   607 IN FLOW TIME STEP     1 STRESS PERIOD     2
      4 TOTAL ITERATIONS
     1 CALLS TO GCG PACKAGE FOR TRANSPORT TIME STEP   608 IN FLOW TIME STEP     1 STRESS PERIOD     2
      4 TOTAL ITERATIONS
     1 CALLS TO GCG PACKAGE FOR TRANSPORT TIME STEP   609 IN FLOW TIME STEP     1 STRESS PERIOD     2
      4 TOTAL ITERATIONS
     1 CALLS TO GCG PACKAGE FOR TRANSPORT TIME STEP   610 IN FLOW TIME STEP     1 STRESS PERIOD     2
      4 TOTAL ITERATIONS
     1 CALLS TO GCG PACKAGE FOR TRANSPORT TIME STEP   611 IN FLOW TIME STEP     1 STRESS PERIOD     2
      4 TOTAL ITERATIONS
     1 CALLS TO GCG PACKAGE FOR TRANSPORT TIME STEP   612 IN FLOW TIME STEP     1 STRESS PERIOD     2
      4 TOTAL ITERATIONS
     1 CALLS TO GCG PACKAGE FOR TRANSPORT TIME STEP   613 IN FLOW TIME STEP     1 STRESS PERIOD     2
      4 TOTAL ITERATIONS
     1 CALLS TO GCG PACKAGE FOR TRANSPORT TIME STEP   614 IN FLOW TIME STEP     1 STRESS PERIOD     2
      4 TOTAL ITERATIONS
     1 CALLS TO GCG PACKAGE FOR TRANSPORT TIME STEP   615 IN FLOW TIME STEP     1 STRESS PERIOD     2
      4 TOTAL ITERATIONS
     1 CALLS TO GCG PACKAGE FOR TRANSPORT TIME STEP   616 IN FLOW TIME STEP     1 STRESS PERIOD     2
      4 TOTAL ITERATIONS
     1 CALLS TO GCG PACKAGE FOR TRANSPORT TIME STEP   617 IN FLOW TIME STEP     1 STRESS PERIOD     2
      4 TOTAL ITERATIONS
     1 CALLS TO GCG PACKAGE FOR TRANSPORT TIME STEP   618 IN FLOW TIME STEP     1 STRESS PERIOD     2
      4 TOTAL ITERATIONS
     1 CALLS TO GCG PACKAGE FOR TRANSPORT TIME STEP   619 IN FLOW TIME STEP     1 STRESS PERIOD     2
      4 TOTAL ITERATIONS
     1 CALLS TO GCG PACKAGE FOR TRANSPORT TIME STEP   620 IN FLOW TIME STEP     1 STRESS PERIOD     2
      4 TOTAL ITERATIONS
     1 CALLS TO GCG PACKAGE FOR TRANSPORT TIME STEP   621 IN FLOW TIME STEP     1 STRESS PERIOD     2
      4 TOTAL ITERATIONS
     1 CALLS TO GCG PACKAGE FOR TRANSPORT TIME STEP   622 IN FLOW TIME STEP     1 STRESS PERIOD     2
      4 TOTAL ITERATIONS
     1 CALLS TO GCG PACKAGE FOR TRANSPORT TIME STEP   623 IN FLOW TIME STEP     1 STRESS PERIOD     2
      4 TOTAL ITERATIONS
     1 CALLS TO GCG PACKAGE FOR TRANSPORT TIME STEP   624 IN FLOW TIME STEP     1 STRESS PERIOD     2
      4 TOTAL ITERATIONS
     1 CALLS TO GCG PACKAGE FOR TRANSPORT TIME STEP   625 IN FLOW TIME STEP     1 STRESS PERIOD     2
      4 TOTAL ITERATIONS
     1 CALLS TO GCG PACKAGE FOR TRANSPORT TIME STEP   626 IN FLOW TIME STEP     1 STRESS PERIOD     2
      4 TOTAL ITERATIONS
     1 CALLS TO GCG PACKAGE FOR TRANSPORT TIME STEP   627 IN FLOW TIME STEP     1 STRESS PERIOD     2
      4 TOTAL ITERATIONS
     1 CALLS TO GCG PACKAGE FOR TRANSPORT TIME STEP   628 IN FLOW TIME STEP     1 STRESS PERIOD     2
      4 TOTAL ITERATIONS
     1 CALLS TO GCG PACKAGE FOR TRANSPORT TIME STEP   629 IN FLOW TIME STEP     1 STRESS PERIOD     2
      4 TOTAL ITERATIONS
     1 CALLS TO GCG PACKAGE FOR TRANSPORT TIME STEP   630 IN FLOW TIME STEP     1 STRESS PERIOD     2
      4 TOTAL ITERATIONS
     1 CALLS TO GCG PACKAGE FOR TRANSPORT TIME STEP   631 IN FLOW TIME STEP     1 STRESS PERIOD     2
      4 TOTAL ITERATIONS
     1 CALLS TO GCG PACKAGE FOR TRANSPORT TIME STEP   632 IN FLOW TIME STEP     1 STRESS PERIOD     2
      4 TOTAL ITERATIONS
     1 CALLS TO GCG PACKAGE FOR TRANSPORT TIME STEP   633 IN FLOW TIME STEP     1 STRESS PERIOD     2
      4 TOTAL ITERATIONS
     1 CALLS TO GCG PACKAGE FOR TRANSPORT TIME STEP   634 IN FLOW TIME STEP     1 STRESS PERIOD     2
      4 TOTAL ITERATIONS
     1 CALLS TO GCG PACKAGE FOR TRANSPORT TIME STEP   635 IN FLOW TIME STEP     1 STRESS PERIOD     2
      3 TOTAL ITERATIONS



 >>>>>>>>>>>>>>>>>>>>>>>>>>>>>>>>>>>>>>>>>>>>>>>>>>>>>>>FOR COMPONENT NO. 01<<<<<<<<<<<<<<<<<<<<<<<<<<<<<<<<<<<<<<<<<<<<<<<<<<<<<<<


                                            -------------------------------------------
                                                      TRANSPORT STEP NO.  635
                                            -------------------------------------------

 TOTAL ELAPSED TIME SINCE BEGINNING OF SIMULATION =   21.32000    D   
 .....................................................................

                     CUMULATIVE MASS BUDGETS AT END OF TRANSPORT STEP  635, TIME STEP    1, STRESS PERIOD    2
                     -----------------------------------------------------------------------------------------

                                                             IN                           OUT
                                                      ----------------             ----------------
                               CONSTANT CONCENTRATION:    0.000000                    0.000000    
                                        CONSTANT HEAD:    0.000000                  -0.7577529E-02
                                                WELLS:   0.1315769E-01                0.000000    
                               MASS STOR (FLOW MODEL):    0.000000                    0.000000    
                                MASS STORAGE (SOLUTE):   0.8326067E-05              -0.5588673E-02
                            ---------------------------------------------------------------------------
                                              [TOTAL]:   0.1316601E-01 KG           -0.1316620E-01 KG  

                                                          NET (IN - OUT):  -0.1890585E-06
                                                   DISCREPANCY (PERCENT):  -0.1435948E-02
     1 CALLS TO GCG PACKAGE FOR TRANSPORT TIME STEP   636 IN FLOW TIME STEP     1 STRESS PERIOD     2
      4 TOTAL ITERATIONS
     1 CALLS TO GCG PACKAGE FOR TRANSPORT TIME STEP   637 IN FLOW TIME STEP     1 STRESS PERIOD     2
      4 TOTAL ITERATIONS
     1 CALLS TO GCG PACKAGE FOR TRANSPORT TIME STEP   638 IN FLOW TIME STEP     1 STRESS PERIOD     2
      4 TOTAL ITERATIONS
     1 CALLS TO GCG PACKAGE FOR TRANSPORT TIME STEP   639 IN FLOW TIME STEP     1 STRESS PERIOD     2
      4 TOTAL ITERATIONS
     1 CALLS TO GCG PACKAGE FOR TRANSPORT TIME STEP   640 IN FLOW TIME STEP     1 STRESS PERIOD     2
      4 TOTAL ITERATIONS
     1 CALLS TO GCG PACKAGE FOR TRANSPORT TIME STEP   641 IN FLOW TIME STEP     1 STRESS PERIOD     2
      4 TOTAL ITERATIONS
     1 CALLS TO GCG PACKAGE FOR TRANSPORT TIME STEP   642 IN FLOW TIME STEP     1 STRESS PERIOD     2
      4 TOTAL ITERATIONS
     1 CALLS TO GCG PACKAGE FOR TRANSPORT TIME STEP   643 IN FLOW TIME STEP     1 STRESS PERIOD     2
      4 TOTAL ITERATIONS
     1 CALLS TO GCG PACKAGE FOR TRANSPORT TIME STEP   644 IN FLOW TIME STEP     1 STRESS PERIOD     2
      4 TOTAL ITERATIONS
     1 CALLS TO GCG PACKAGE FOR TRANSPORT TIME STEP   645 IN FLOW TIME STEP     1 STRESS PERIOD     2
      4 TOTAL ITERATIONS
     1 CALLS TO GCG PACKAGE FOR TRANSPORT TIME STEP   646 IN FLOW TIME STEP     1 STRESS PERIOD     2
      4 TOTAL ITERATIONS
     1 CALLS TO GCG PACKAGE FOR TRANSPORT TIME STEP   647 IN FLOW TIME STEP     1 STRESS PERIOD     2
      4 TOTAL ITERATIONS
     1 CALLS TO GCG PACKAGE FOR TRANSPORT TIME STEP   648 IN FLOW TIME STEP     1 STRESS PERIOD     2
      4 TOTAL ITERATIONS
     1 CALLS TO GCG PACKAGE FOR TRANSPORT TIME STEP   649 IN FLOW TIME STEP     1 STRESS PERIOD     2
      4 TOTAL ITERATIONS
     1 CALLS TO GCG PACKAGE FOR TRANSPORT TIME STEP   650 IN FLOW TIME STEP     1 STRESS PERIOD     2
      4 TOTAL ITERATIONS
     1 CALLS TO GCG PACKAGE FOR TRANSPORT TIME STEP   651 IN FLOW TIME STEP     1 STRESS PERIOD     2
      4 TOTAL ITERATIONS
     1 CALLS TO GCG PACKAGE FOR TRANSPORT TIME STEP   652 IN FLOW TIME STEP     1 STRESS PERIOD     2
      4 TOTAL ITERATIONS
     1 CALLS TO GCG PACKAGE FOR TRANSPORT TIME STEP   653 IN FLOW TIME STEP     1 STRESS PERIOD     2
      4 TOTAL ITERATIONS
     1 CALLS TO GCG PACKAGE FOR TRANSPORT TIME STEP   654 IN FLOW TIME STEP     1 STRESS PERIOD     2
      4 TOTAL ITERATIONS
     1 CALLS TO GCG PACKAGE FOR TRANSPORT TIME STEP   655 IN FLOW TIME STEP     1 STRESS PERIOD     2
      4 TOTAL ITERATIONS
     1 CALLS TO GCG PACKAGE FOR TRANSPORT TIME STEP   656 IN FLOW TIME STEP     1 STRESS PERIOD     2
      4 TOTAL ITERATIONS
     1 CALLS TO GCG PACKAGE FOR TRANSPORT TIME STEP   657 IN FLOW TIME STEP     1 STRESS PERIOD     2
      4 TOTAL ITERATIONS
     1 CALLS TO GCG PACKAGE FOR TRANSPORT TIME STEP   658 IN FLOW TIME STEP     1 STRESS PERIOD     2
      4 TOTAL ITERATIONS
     1 CALLS TO GCG PACKAGE FOR TRANSPORT TIME STEP   659 IN FLOW TIME STEP     1 STRESS PERIOD     2
      4 TOTAL ITERATIONS
     1 CALLS TO GCG PACKAGE FOR TRANSPORT TIME STEP   660 IN FLOW TIME STEP     1 STRESS PERIOD     2
      4 TOTAL ITERATIONS
     1 CALLS TO GCG PACKAGE FOR TRANSPORT TIME STEP   661 IN FLOW TIME STEP     1 STRESS PERIOD     2
      4 TOTAL ITERATIONS
     1 CALLS TO GCG PACKAGE FOR TRANSPORT TIME STEP   662 IN FLOW TIME STEP     1 STRESS PERIOD     2
      4 TOTAL ITERATIONS
     1 CALLS TO GCG PACKAGE FOR TRANSPORT TIME STEP   663 IN FLOW TIME STEP     1 STRESS PERIOD     2
      4 TOTAL ITERATIONS
     1 CALLS TO GCG PACKAGE FOR TRANSPORT TIME STEP   664 IN FLOW TIME STEP     1 STRESS PERIOD     2
      4 TOTAL ITERATIONS
     1 CALLS TO GCG PACKAGE FOR TRANSPORT TIME STEP   665 IN FLOW TIME STEP     1 STRESS PERIOD     2
      4 TOTAL ITERATIONS
     1 CALLS TO GCG PACKAGE FOR TRANSPORT TIME STEP   666 IN FLOW TIME STEP     1 STRESS PERIOD     2
      4 TOTAL ITERATIONS
     1 CALLS TO GCG PACKAGE FOR TRANSPORT TIME STEP   667 IN FLOW TIME STEP     1 STRESS PERIOD     2
      4 TOTAL ITERATIONS
     1 CALLS TO GCG PACKAGE FOR TRANSPORT TIME STEP   668 IN FLOW TIME STEP     1 STRESS PERIOD     2
      4 TOTAL ITERATIONS
     1 CALLS TO GCG PACKAGE FOR TRANSPORT TIME STEP   669 IN FLOW TIME STEP     1 STRESS PERIOD     2
      4 TOTAL ITERATIONS
     1 CALLS TO GCG PACKAGE FOR TRANSPORT TIME STEP   670 IN FLOW TIME STEP     1 STRESS PERIOD     2
      4 TOTAL ITERATIONS
     1 CALLS TO GCG PACKAGE FOR TRANSPORT TIME STEP   671 IN FLOW TIME STEP     1 STRESS PERIOD     2
      4 TOTAL ITERATIONS
     1 CALLS TO GCG PACKAGE FOR TRANSPORT TIME STEP   672 IN FLOW TIME STEP     1 STRESS PERIOD     2
      4 TOTAL ITERATIONS
     1 CALLS TO GCG PACKAGE FOR TRANSPORT TIME STEP   673 IN FLOW TIME STEP     1 STRESS PERIOD     2
      4 TOTAL ITERATIONS
     1 CALLS TO GCG PACKAGE FOR TRANSPORT TIME STEP   674 IN FLOW TIME STEP     1 STRESS PERIOD     2
      4 TOTAL ITERATIONS
     1 CALLS TO GCG PACKAGE FOR TRANSPORT TIME STEP   675 IN FLOW TIME STEP     1 STRESS PERIOD     2
      4 TOTAL ITERATIONS
     1 CALLS TO GCG PACKAGE FOR TRANSPORT TIME STEP   676 IN FLOW TIME STEP     1 STRESS PERIOD     2
      4 TOTAL ITERATIONS
     1 CALLS TO GCG PACKAGE FOR TRANSPORT TIME STEP   677 IN FLOW TIME STEP     1 STRESS PERIOD     2
      4 TOTAL ITERATIONS
     1 CALLS TO GCG PACKAGE FOR TRANSPORT TIME STEP   678 IN FLOW TIME STEP     1 STRESS PERIOD     2
      4 TOTAL ITERATIONS
     1 CALLS TO GCG PACKAGE FOR TRANSPORT TIME STEP   679 IN FLOW TIME STEP     1 STRESS PERIOD     2
      4 TOTAL ITERATIONS
     1 CALLS TO GCG PACKAGE FOR TRANSPORT TIME STEP   680 IN FLOW TIME STEP     1 STRESS PERIOD     2
      4 TOTAL ITERATIONS
     1 CALLS TO GCG PACKAGE FOR TRANSPORT TIME STEP   681 IN FLOW TIME STEP     1 STRESS PERIOD     2
      3 TOTAL ITERATIONS



 >>>>>>>>>>>>>>>>>>>>>>>>>>>>>>>>>>>>>>>>>>>>>>>>>>>>>>>FOR COMPONENT NO. 01<<<<<<<<<<<<<<<<<<<<<<<<<<<<<<<<<<<<<<<<<<<<<<<<<<<<<<<


                                            -------------------------------------------
                                                      TRANSPORT STEP NO.  681
                                            -------------------------------------------

 TOTAL ELAPSED TIME SINCE BEGINNING OF SIMULATION =   22.14000    D   
 .....................................................................

                     CUMULATIVE MASS BUDGETS AT END OF TRANSPORT STEP  681, TIME STEP    1, STRESS PERIOD    2
                     -----------------------------------------------------------------------------------------

                                                             IN                           OUT
                                                      ----------------             ----------------
                               CONSTANT CONCENTRATION:    0.000000                    0.000000    
                                        CONSTANT HEAD:    0.000000                  -0.8054025E-02
                                                WELLS:   0.1366377E-01                0.000000    
                               MASS STOR (FLOW MODEL):    0.000000                    0.000000    
                                MASS STORAGE (SOLUTE):   0.8359365E-05              -0.5618312E-02
                            ---------------------------------------------------------------------------
                                              [TOTAL]:   0.1367213E-01 KG           -0.1367234E-01 KG  

                                                          NET (IN - OUT):  -0.2039596E-06
                                                   DISCREPANCY (PERCENT):  -0.1491780E-02
     1 CALLS TO GCG PACKAGE FOR TRANSPORT TIME STEP   682 IN FLOW TIME STEP     1 STRESS PERIOD     2
      4 TOTAL ITERATIONS
     1 CALLS TO GCG PACKAGE FOR TRANSPORT TIME STEP   683 IN FLOW TIME STEP     1 STRESS PERIOD     2
      4 TOTAL ITERATIONS
     1 CALLS TO GCG PACKAGE FOR TRANSPORT TIME STEP   684 IN FLOW TIME STEP     1 STRESS PERIOD     2
      4 TOTAL ITERATIONS
     1 CALLS TO GCG PACKAGE FOR TRANSPORT TIME STEP   685 IN FLOW TIME STEP     1 STRESS PERIOD     2
      4 TOTAL ITERATIONS
     1 CALLS TO GCG PACKAGE FOR TRANSPORT TIME STEP   686 IN FLOW TIME STEP     1 STRESS PERIOD     2
      4 TOTAL ITERATIONS
     1 CALLS TO GCG PACKAGE FOR TRANSPORT TIME STEP   687 IN FLOW TIME STEP     1 STRESS PERIOD     2
      4 TOTAL ITERATIONS
     1 CALLS TO GCG PACKAGE FOR TRANSPORT TIME STEP   688 IN FLOW TIME STEP     1 STRESS PERIOD     2
      4 TOTAL ITERATIONS
     1 CALLS TO GCG PACKAGE FOR TRANSPORT TIME STEP   689 IN FLOW TIME STEP     1 STRESS PERIOD     2
      4 TOTAL ITERATIONS
     1 CALLS TO GCG PACKAGE FOR TRANSPORT TIME STEP   690 IN FLOW TIME STEP     1 STRESS PERIOD     2
      4 TOTAL ITERATIONS
     1 CALLS TO GCG PACKAGE FOR TRANSPORT TIME STEP   691 IN FLOW TIME STEP     1 STRESS PERIOD     2
      4 TOTAL ITERATIONS
     1 CALLS TO GCG PACKAGE FOR TRANSPORT TIME STEP   692 IN FLOW TIME STEP     1 STRESS PERIOD     2
      4 TOTAL ITERATIONS
     1 CALLS TO GCG PACKAGE FOR TRANSPORT TIME STEP   693 IN FLOW TIME STEP     1 STRESS PERIOD     2
      4 TOTAL ITERATIONS
     1 CALLS TO GCG PACKAGE FOR TRANSPORT TIME STEP   694 IN FLOW TIME STEP     1 STRESS PERIOD     2
      4 TOTAL ITERATIONS
     1 CALLS TO GCG PACKAGE FOR TRANSPORT TIME STEP   695 IN FLOW TIME STEP     1 STRESS PERIOD     2
      4 TOTAL ITERATIONS
     1 CALLS TO GCG PACKAGE FOR TRANSPORT TIME STEP   696 IN FLOW TIME STEP     1 STRESS PERIOD     2
      4 TOTAL ITERATIONS
     1 CALLS TO GCG PACKAGE FOR TRANSPORT TIME STEP   697 IN FLOW TIME STEP     1 STRESS PERIOD     2
      4 TOTAL ITERATIONS
     1 CALLS TO GCG PACKAGE FOR TRANSPORT TIME STEP   698 IN FLOW TIME STEP     1 STRESS PERIOD     2
      4 TOTAL ITERATIONS
     1 CALLS TO GCG PACKAGE FOR TRANSPORT TIME STEP   699 IN FLOW TIME STEP     1 STRESS PERIOD     2
      4 TOTAL ITERATIONS
     1 CALLS TO GCG PACKAGE FOR TRANSPORT TIME STEP   700 IN FLOW TIME STEP     1 STRESS PERIOD     2
      4 TOTAL ITERATIONS
     1 CALLS TO GCG PACKAGE FOR TRANSPORT TIME STEP   701 IN FLOW TIME STEP     1 STRESS PERIOD     2
      4 TOTAL ITERATIONS
     1 CALLS TO GCG PACKAGE FOR TRANSPORT TIME STEP   702 IN FLOW TIME STEP     1 STRESS PERIOD     2
      4 TOTAL ITERATIONS
     1 CALLS TO GCG PACKAGE FOR TRANSPORT TIME STEP   703 IN FLOW TIME STEP     1 STRESS PERIOD     2
      4 TOTAL ITERATIONS
     1 CALLS TO GCG PACKAGE FOR TRANSPORT TIME STEP   704 IN FLOW TIME STEP     1 STRESS PERIOD     2
      4 TOTAL ITERATIONS
     1 CALLS TO GCG PACKAGE FOR TRANSPORT TIME STEP   705 IN FLOW TIME STEP     1 STRESS PERIOD     2
      4 TOTAL ITERATIONS
     1 CALLS TO GCG PACKAGE FOR TRANSPORT TIME STEP   706 IN FLOW TIME STEP     1 STRESS PERIOD     2
      4 TOTAL ITERATIONS
     1 CALLS TO GCG PACKAGE FOR TRANSPORT TIME STEP   707 IN FLOW TIME STEP     1 STRESS PERIOD     2
      4 TOTAL ITERATIONS
     1 CALLS TO GCG PACKAGE FOR TRANSPORT TIME STEP   708 IN FLOW TIME STEP     1 STRESS PERIOD     2
      4 TOTAL ITERATIONS
     1 CALLS TO GCG PACKAGE FOR TRANSPORT TIME STEP   709 IN FLOW TIME STEP     1 STRESS PERIOD     2
      4 TOTAL ITERATIONS
     1 CALLS TO GCG PACKAGE FOR TRANSPORT TIME STEP   710 IN FLOW TIME STEP     1 STRESS PERIOD     2
      4 TOTAL ITERATIONS
     1 CALLS TO GCG PACKAGE FOR TRANSPORT TIME STEP   711 IN FLOW TIME STEP     1 STRESS PERIOD     2
      4 TOTAL ITERATIONS
     1 CALLS TO GCG PACKAGE FOR TRANSPORT TIME STEP   712 IN FLOW TIME STEP     1 STRESS PERIOD     2
      4 TOTAL ITERATIONS
     1 CALLS TO GCG PACKAGE FOR TRANSPORT TIME STEP   713 IN FLOW TIME STEP     1 STRESS PERIOD     2
      4 TOTAL ITERATIONS
     1 CALLS TO GCG PACKAGE FOR TRANSPORT TIME STEP   714 IN FLOW TIME STEP     1 STRESS PERIOD     2
      4 TOTAL ITERATIONS
     1 CALLS TO GCG PACKAGE FOR TRANSPORT TIME STEP   715 IN FLOW TIME STEP     1 STRESS PERIOD     2
      4 TOTAL ITERATIONS
     1 CALLS TO GCG PACKAGE FOR TRANSPORT TIME STEP   716 IN FLOW TIME STEP     1 STRESS PERIOD     2
      4 TOTAL ITERATIONS
     1 CALLS TO GCG PACKAGE FOR TRANSPORT TIME STEP   717 IN FLOW TIME STEP     1 STRESS PERIOD     2
      4 TOTAL ITERATIONS
     1 CALLS TO GCG PACKAGE FOR TRANSPORT TIME STEP   718 IN FLOW TIME STEP     1 STRESS PERIOD     2
      4 TOTAL ITERATIONS
     1 CALLS TO GCG PACKAGE FOR TRANSPORT TIME STEP   719 IN FLOW TIME STEP     1 STRESS PERIOD     2
      4 TOTAL ITERATIONS
     1 CALLS TO GCG PACKAGE FOR TRANSPORT TIME STEP   720 IN FLOW TIME STEP     1 STRESS PERIOD     2
      4 TOTAL ITERATIONS
     1 CALLS TO GCG PACKAGE FOR TRANSPORT TIME STEP   721 IN FLOW TIME STEP     1 STRESS PERIOD     2
      4 TOTAL ITERATIONS
     1 CALLS TO GCG PACKAGE FOR TRANSPORT TIME STEP   722 IN FLOW TIME STEP     1 STRESS PERIOD     2
      4 TOTAL ITERATIONS
     1 CALLS TO GCG PACKAGE FOR TRANSPORT TIME STEP   723 IN FLOW TIME STEP     1 STRESS PERIOD     2
      4 TOTAL ITERATIONS
     1 CALLS TO GCG PACKAGE FOR TRANSPORT TIME STEP   724 IN FLOW TIME STEP     1 STRESS PERIOD     2
      4 TOTAL ITERATIONS
     1 CALLS TO GCG PACKAGE FOR TRANSPORT TIME STEP   725 IN FLOW TIME STEP     1 STRESS PERIOD     2
      4 TOTAL ITERATIONS
     1 CALLS TO GCG PACKAGE FOR TRANSPORT TIME STEP   726 IN FLOW TIME STEP     1 STRESS PERIOD     2
      4 TOTAL ITERATIONS
     1 CALLS TO GCG PACKAGE FOR TRANSPORT TIME STEP   727 IN FLOW TIME STEP     1 STRESS PERIOD     2
      3 TOTAL ITERATIONS



 >>>>>>>>>>>>>>>>>>>>>>>>>>>>>>>>>>>>>>>>>>>>>>>>>>>>>>>FOR COMPONENT NO. 01<<<<<<<<<<<<<<<<<<<<<<<<<<<<<<<<<<<<<<<<<<<<<<<<<<<<<<<


                                            -------------------------------------------
                                                      TRANSPORT STEP NO.  727
                                            -------------------------------------------

 TOTAL ELAPSED TIME SINCE BEGINNING OF SIMULATION =   22.96000    D   
 .....................................................................

                     CUMULATIVE MASS BUDGETS AT END OF TRANSPORT STEP  727, TIME STEP    1, STRESS PERIOD    2
                     -----------------------------------------------------------------------------------------

                                                             IN                           OUT
                                                      ----------------             ----------------
                               CONSTANT CONCENTRATION:    0.000000                    0.000000    
                                        CONSTANT HEAD:    0.000000                  -0.8532333E-02
                                                WELLS:   0.1416986E-01                0.000000    
                               MASS STOR (FLOW MODEL):    0.000000                    0.000000    
                                MASS STORAGE (SOLUTE):   0.8392759E-05              -0.5646136E-02
                            ---------------------------------------------------------------------------
                                              [TOTAL]:   0.1417825E-01 KG           -0.1417847E-01 KG  

                                                          NET (IN - OUT):  -0.2160668E-06
                                                   DISCREPANCY (PERCENT):  -0.1523920E-02
     1 CALLS TO GCG PACKAGE FOR TRANSPORT TIME STEP   728 IN FLOW TIME STEP     1 STRESS PERIOD     2
      4 TOTAL ITERATIONS
     1 CALLS TO GCG PACKAGE FOR TRANSPORT TIME STEP   729 IN FLOW TIME STEP     1 STRESS PERIOD     2
      4 TOTAL ITERATIONS
     1 CALLS TO GCG PACKAGE FOR TRANSPORT TIME STEP   730 IN FLOW TIME STEP     1 STRESS PERIOD     2
      4 TOTAL ITERATIONS
     1 CALLS TO GCG PACKAGE FOR TRANSPORT TIME STEP   731 IN FLOW TIME STEP     1 STRESS PERIOD     2
      4 TOTAL ITERATIONS
     1 CALLS TO GCG PACKAGE FOR TRANSPORT TIME STEP   732 IN FLOW TIME STEP     1 STRESS PERIOD     2
      4 TOTAL ITERATIONS
     1 CALLS TO GCG PACKAGE FOR TRANSPORT TIME STEP   733 IN FLOW TIME STEP     1 STRESS PERIOD     2
      4 TOTAL ITERATIONS
     1 CALLS TO GCG PACKAGE FOR TRANSPORT TIME STEP   734 IN FLOW TIME STEP     1 STRESS PERIOD     2
      4 TOTAL ITERATIONS
     1 CALLS TO GCG PACKAGE FOR TRANSPORT TIME STEP   735 IN FLOW TIME STEP     1 STRESS PERIOD     2
      4 TOTAL ITERATIONS
     1 CALLS TO GCG PACKAGE FOR TRANSPORT TIME STEP   736 IN FLOW TIME STEP     1 STRESS PERIOD     2
      4 TOTAL ITERATIONS
     1 CALLS TO GCG PACKAGE FOR TRANSPORT TIME STEP   737 IN FLOW TIME STEP     1 STRESS PERIOD     2
      4 TOTAL ITERATIONS
     1 CALLS TO GCG PACKAGE FOR TRANSPORT TIME STEP   738 IN FLOW TIME STEP     1 STRESS PERIOD     2
      4 TOTAL ITERATIONS
     1 CALLS TO GCG PACKAGE FOR TRANSPORT TIME STEP   739 IN FLOW TIME STEP     1 STRESS PERIOD     2
      4 TOTAL ITERATIONS
     1 CALLS TO GCG PACKAGE FOR TRANSPORT TIME STEP   740 IN FLOW TIME STEP     1 STRESS PERIOD     2
      4 TOTAL ITERATIONS
     1 CALLS TO GCG PACKAGE FOR TRANSPORT TIME STEP   741 IN FLOW TIME STEP     1 STRESS PERIOD     2
      4 TOTAL ITERATIONS
     1 CALLS TO GCG PACKAGE FOR TRANSPORT TIME STEP   742 IN FLOW TIME STEP     1 STRESS PERIOD     2
      4 TOTAL ITERATIONS
     1 CALLS TO GCG PACKAGE FOR TRANSPORT TIME STEP   743 IN FLOW TIME STEP     1 STRESS PERIOD     2
      4 TOTAL ITERATIONS
     1 CALLS TO GCG PACKAGE FOR TRANSPORT TIME STEP   744 IN FLOW TIME STEP     1 STRESS PERIOD     2
      4 TOTAL ITERATIONS
     1 CALLS TO GCG PACKAGE FOR TRANSPORT TIME STEP   745 IN FLOW TIME STEP     1 STRESS PERIOD     2
      4 TOTAL ITERATIONS
     1 CALLS TO GCG PACKAGE FOR TRANSPORT TIME STEP   746 IN FLOW TIME STEP     1 STRESS PERIOD     2
      4 TOTAL ITERATIONS
     1 CALLS TO GCG PACKAGE FOR TRANSPORT TIME STEP   747 IN FLOW TIME STEP     1 STRESS PERIOD     2
      4 TOTAL ITERATIONS
     1 CALLS TO GCG PACKAGE FOR TRANSPORT TIME STEP   748 IN FLOW TIME STEP     1 STRESS PERIOD     2
      4 TOTAL ITERATIONS
     1 CALLS TO GCG PACKAGE FOR TRANSPORT TIME STEP   749 IN FLOW TIME STEP     1 STRESS PERIOD     2
      4 TOTAL ITERATIONS
     1 CALLS TO GCG PACKAGE FOR TRANSPORT TIME STEP   750 IN FLOW TIME STEP     1 STRESS PERIOD     2
      4 TOTAL ITERATIONS
     1 CALLS TO GCG PACKAGE FOR TRANSPORT TIME STEP   751 IN FLOW TIME STEP     1 STRESS PERIOD     2
      4 TOTAL ITERATIONS
     1 CALLS TO GCG PACKAGE FOR TRANSPORT TIME STEP   752 IN FLOW TIME STEP     1 STRESS PERIOD     2
      4 TOTAL ITERATIONS
     1 CALLS TO GCG PACKAGE FOR TRANSPORT TIME STEP   753 IN FLOW TIME STEP     1 STRESS PERIOD     2
      4 TOTAL ITERATIONS
     1 CALLS TO GCG PACKAGE FOR TRANSPORT TIME STEP   754 IN FLOW TIME STEP     1 STRESS PERIOD     2
      4 TOTAL ITERATIONS
     1 CALLS TO GCG PACKAGE FOR TRANSPORT TIME STEP   755 IN FLOW TIME STEP     1 STRESS PERIOD     2
      4 TOTAL ITERATIONS
     1 CALLS TO GCG PACKAGE FOR TRANSPORT TIME STEP   756 IN FLOW TIME STEP     1 STRESS PERIOD     2
      4 TOTAL ITERATIONS
     1 CALLS TO GCG PACKAGE FOR TRANSPORT TIME STEP   757 IN FLOW TIME STEP     1 STRESS PERIOD     2
      4 TOTAL ITERATIONS
     1 CALLS TO GCG PACKAGE FOR TRANSPORT TIME STEP   758 IN FLOW TIME STEP     1 STRESS PERIOD     2
      4 TOTAL ITERATIONS
     1 CALLS TO GCG PACKAGE FOR TRANSPORT TIME STEP   759 IN FLOW TIME STEP     1 STRESS PERIOD     2
      4 TOTAL ITERATIONS
     1 CALLS TO GCG PACKAGE FOR TRANSPORT TIME STEP   760 IN FLOW TIME STEP     1 STRESS PERIOD     2
      4 TOTAL ITERATIONS
     1 CALLS TO GCG PACKAGE FOR TRANSPORT TIME STEP   761 IN FLOW TIME STEP     1 STRESS PERIOD     2
      4 TOTAL ITERATIONS
     1 CALLS TO GCG PACKAGE FOR TRANSPORT TIME STEP   762 IN FLOW TIME STEP     1 STRESS PERIOD     2
      4 TOTAL ITERATIONS
     1 CALLS TO GCG PACKAGE FOR TRANSPORT TIME STEP   763 IN FLOW TIME STEP     1 STRESS PERIOD     2
      4 TOTAL ITERATIONS
     1 CALLS TO GCG PACKAGE FOR TRANSPORT TIME STEP   764 IN FLOW TIME STEP     1 STRESS PERIOD     2
      4 TOTAL ITERATIONS
     1 CALLS TO GCG PACKAGE FOR TRANSPORT TIME STEP   765 IN FLOW TIME STEP     1 STRESS PERIOD     2
      4 TOTAL ITERATIONS
     1 CALLS TO GCG PACKAGE FOR TRANSPORT TIME STEP   766 IN FLOW TIME STEP     1 STRESS PERIOD     2
      4 TOTAL ITERATIONS
     1 CALLS TO GCG PACKAGE FOR TRANSPORT TIME STEP   767 IN FLOW TIME STEP     1 STRESS PERIOD     2
      4 TOTAL ITERATIONS
     1 CALLS TO GCG PACKAGE FOR TRANSPORT TIME STEP   768 IN FLOW TIME STEP     1 STRESS PERIOD     2
      4 TOTAL ITERATIONS
     1 CALLS TO GCG PACKAGE FOR TRANSPORT TIME STEP   769 IN FLOW TIME STEP     1 STRESS PERIOD     2
      4 TOTAL ITERATIONS
     1 CALLS TO GCG PACKAGE FOR TRANSPORT TIME STEP   770 IN FLOW TIME STEP     1 STRESS PERIOD     2
      4 TOTAL ITERATIONS
     1 CALLS TO GCG PACKAGE FOR TRANSPORT TIME STEP   771 IN FLOW TIME STEP     1 STRESS PERIOD     2
      4 TOTAL ITERATIONS
     1 CALLS TO GCG PACKAGE FOR TRANSPORT TIME STEP   772 IN FLOW TIME STEP     1 STRESS PERIOD     2
      4 TOTAL ITERATIONS
     1 CALLS TO GCG PACKAGE FOR TRANSPORT TIME STEP   773 IN FLOW TIME STEP     1 STRESS PERIOD     2
      3 TOTAL ITERATIONS



 >>>>>>>>>>>>>>>>>>>>>>>>>>>>>>>>>>>>>>>>>>>>>>>>>>>>>>>FOR COMPONENT NO. 01<<<<<<<<<<<<<<<<<<<<<<<<<<<<<<<<<<<<<<<<<<<<<<<<<<<<<<<


                                            -------------------------------------------
                                                      TRANSPORT STEP NO.  773
                                            -------------------------------------------

 TOTAL ELAPSED TIME SINCE BEGINNING OF SIMULATION =   23.78000    D   
 .....................................................................

                     CUMULATIVE MASS BUDGETS AT END OF TRANSPORT STEP  773, TIME STEP    1, STRESS PERIOD    2
                     -----------------------------------------------------------------------------------------

                                                             IN                           OUT
                                                      ----------------             ----------------
                               CONSTANT CONCENTRATION:    0.000000                    0.000000    
                                        CONSTANT HEAD:    0.000000                  -0.9012342E-02
                                                WELLS:   0.1467595E-01                0.000000    
                               MASS STOR (FLOW MODEL):    0.000000                    0.000000    
                                MASS STORAGE (SOLUTE):   0.8426259E-05              -0.5672259E-02
                            ---------------------------------------------------------------------------
                                              [TOTAL]:   0.1468438E-01 KG           -0.1468460E-01 KG  

                                                          NET (IN - OUT):  -0.2253801E-06
                                                   DISCREPANCY (PERCENT):  -0.1534817E-02
     1 CALLS TO GCG PACKAGE FOR TRANSPORT TIME STEP   774 IN FLOW TIME STEP     1 STRESS PERIOD     2
      4 TOTAL ITERATIONS
     1 CALLS TO GCG PACKAGE FOR TRANSPORT TIME STEP   775 IN FLOW TIME STEP     1 STRESS PERIOD     2
      4 TOTAL ITERATIONS
     1 CALLS TO GCG PACKAGE FOR TRANSPORT TIME STEP   776 IN FLOW TIME STEP     1 STRESS PERIOD     2
      4 TOTAL ITERATIONS
     1 CALLS TO GCG PACKAGE FOR TRANSPORT TIME STEP   777 IN FLOW TIME STEP     1 STRESS PERIOD     2
      4 TOTAL ITERATIONS
     1 CALLS TO GCG PACKAGE FOR TRANSPORT TIME STEP   778 IN FLOW TIME STEP     1 STRESS PERIOD     2
      4 TOTAL ITERATIONS
     1 CALLS TO GCG PACKAGE FOR TRANSPORT TIME STEP   779 IN FLOW TIME STEP     1 STRESS PERIOD     2
      4 TOTAL ITERATIONS
     1 CALLS TO GCG PACKAGE FOR TRANSPORT TIME STEP   780 IN FLOW TIME STEP     1 STRESS PERIOD     2
      4 TOTAL ITERATIONS
     1 CALLS TO GCG PACKAGE FOR TRANSPORT TIME STEP   781 IN FLOW TIME STEP     1 STRESS PERIOD     2
      4 TOTAL ITERATIONS
     1 CALLS TO GCG PACKAGE FOR TRANSPORT TIME STEP   782 IN FLOW TIME STEP     1 STRESS PERIOD     2
      4 TOTAL ITERATIONS
     1 CALLS TO GCG PACKAGE FOR TRANSPORT TIME STEP   783 IN FLOW TIME STEP     1 STRESS PERIOD     2
      4 TOTAL ITERATIONS
     1 CALLS TO GCG PACKAGE FOR TRANSPORT TIME STEP   784 IN FLOW TIME STEP     1 STRESS PERIOD     2
      4 TOTAL ITERATIONS
     1 CALLS TO GCG PACKAGE FOR TRANSPORT TIME STEP   785 IN FLOW TIME STEP     1 STRESS PERIOD     2
      4 TOTAL ITERATIONS
     1 CALLS TO GCG PACKAGE FOR TRANSPORT TIME STEP   786 IN FLOW TIME STEP     1 STRESS PERIOD     2
      4 TOTAL ITERATIONS
     1 CALLS TO GCG PACKAGE FOR TRANSPORT TIME STEP   787 IN FLOW TIME STEP     1 STRESS PERIOD     2
      4 TOTAL ITERATIONS
     1 CALLS TO GCG PACKAGE FOR TRANSPORT TIME STEP   788 IN FLOW TIME STEP     1 STRESS PERIOD     2
      4 TOTAL ITERATIONS
     1 CALLS TO GCG PACKAGE FOR TRANSPORT TIME STEP   789 IN FLOW TIME STEP     1 STRESS PERIOD     2
      4 TOTAL ITERATIONS
     1 CALLS TO GCG PACKAGE FOR TRANSPORT TIME STEP   790 IN FLOW TIME STEP     1 STRESS PERIOD     2
      4 TOTAL ITERATIONS
     1 CALLS TO GCG PACKAGE FOR TRANSPORT TIME STEP   791 IN FLOW TIME STEP     1 STRESS PERIOD     2
      4 TOTAL ITERATIONS
     1 CALLS TO GCG PACKAGE FOR TRANSPORT TIME STEP   792 IN FLOW TIME STEP     1 STRESS PERIOD     2
      4 TOTAL ITERATIONS
     1 CALLS TO GCG PACKAGE FOR TRANSPORT TIME STEP   793 IN FLOW TIME STEP     1 STRESS PERIOD     2
      4 TOTAL ITERATIONS
     1 CALLS TO GCG PACKAGE FOR TRANSPORT TIME STEP   794 IN FLOW TIME STEP     1 STRESS PERIOD     2
      4 TOTAL ITERATIONS
     1 CALLS TO GCG PACKAGE FOR TRANSPORT TIME STEP   795 IN FLOW TIME STEP     1 STRESS PERIOD     2
      4 TOTAL ITERATIONS
     1 CALLS TO GCG PACKAGE FOR TRANSPORT TIME STEP   796 IN FLOW TIME STEP     1 STRESS PERIOD     2
      4 TOTAL ITERATIONS
     1 CALLS TO GCG PACKAGE FOR TRANSPORT TIME STEP   797 IN FLOW TIME STEP     1 STRESS PERIOD     2
      4 TOTAL ITERATIONS
     1 CALLS TO GCG PACKAGE FOR TRANSPORT TIME STEP   798 IN FLOW TIME STEP     1 STRESS PERIOD     2
      4 TOTAL ITERATIONS
     1 CALLS TO GCG PACKAGE FOR TRANSPORT TIME STEP   799 IN FLOW TIME STEP     1 STRESS PERIOD     2
      4 TOTAL ITERATIONS
     1 CALLS TO GCG PACKAGE FOR TRANSPORT TIME STEP   800 IN FLOW TIME STEP     1 STRESS PERIOD     2
      4 TOTAL ITERATIONS
     1 CALLS TO GCG PACKAGE FOR TRANSPORT TIME STEP   801 IN FLOW TIME STEP     1 STRESS PERIOD     2
      4 TOTAL ITERATIONS
     1 CALLS TO GCG PACKAGE FOR TRANSPORT TIME STEP   802 IN FLOW TIME STEP     1 STRESS PERIOD     2
      4 TOTAL ITERATIONS
     1 CALLS TO GCG PACKAGE FOR TRANSPORT TIME STEP   803 IN FLOW TIME STEP     1 STRESS PERIOD     2
      4 TOTAL ITERATIONS
     1 CALLS TO GCG PACKAGE FOR TRANSPORT TIME STEP   804 IN FLOW TIME STEP     1 STRESS PERIOD     2
      4 TOTAL ITERATIONS
     1 CALLS TO GCG PACKAGE FOR TRANSPORT TIME STEP   805 IN FLOW TIME STEP     1 STRESS PERIOD     2
      4 TOTAL ITERATIONS
     1 CALLS TO GCG PACKAGE FOR TRANSPORT TIME STEP   806 IN FLOW TIME STEP     1 STRESS PERIOD     2
      4 TOTAL ITERATIONS
     1 CALLS TO GCG PACKAGE FOR TRANSPORT TIME STEP   807 IN FLOW TIME STEP     1 STRESS PERIOD     2
      4 TOTAL ITERATIONS
     1 CALLS TO GCG PACKAGE FOR TRANSPORT TIME STEP   808 IN FLOW TIME STEP     1 STRESS PERIOD     2
      4 TOTAL ITERATIONS
     1 CALLS TO GCG PACKAGE FOR TRANSPORT TIME STEP   809 IN FLOW TIME STEP     1 STRESS PERIOD     2
      4 TOTAL ITERATIONS
     1 CALLS TO GCG PACKAGE FOR TRANSPORT TIME STEP   810 IN FLOW TIME STEP     1 STRESS PERIOD     2
      4 TOTAL ITERATIONS
     1 CALLS TO GCG PACKAGE FOR TRANSPORT TIME STEP   811 IN FLOW TIME STEP     1 STRESS PERIOD     2
      4 TOTAL ITERATIONS
     1 CALLS TO GCG PACKAGE FOR TRANSPORT TIME STEP   812 IN FLOW TIME STEP     1 STRESS PERIOD     2
      4 TOTAL ITERATIONS
     1 CALLS TO GCG PACKAGE FOR TRANSPORT TIME STEP   813 IN FLOW TIME STEP     1 STRESS PERIOD     2
      4 TOTAL ITERATIONS
     1 CALLS TO GCG PACKAGE FOR TRANSPORT TIME STEP   814 IN FLOW TIME STEP     1 STRESS PERIOD     2
      4 TOTAL ITERATIONS
     1 CALLS TO GCG PACKAGE FOR TRANSPORT TIME STEP   815 IN FLOW TIME STEP     1 STRESS PERIOD     2
      4 TOTAL ITERATIONS
     1 CALLS TO GCG PACKAGE FOR TRANSPORT TIME STEP   816 IN FLOW TIME STEP     1 STRESS PERIOD     2
      4 TOTAL ITERATIONS
     1 CALLS TO GCG PACKAGE FOR TRANSPORT TIME STEP   817 IN FLOW TIME STEP     1 STRESS PERIOD     2
      4 TOTAL ITERATIONS
     1 CALLS TO GCG PACKAGE FOR TRANSPORT TIME STEP   818 IN FLOW TIME STEP     1 STRESS PERIOD     2
      4 TOTAL ITERATIONS
     1 CALLS TO GCG PACKAGE FOR TRANSPORT TIME STEP   819 IN FLOW TIME STEP     1 STRESS PERIOD     2
      3 TOTAL ITERATIONS



 >>>>>>>>>>>>>>>>>>>>>>>>>>>>>>>>>>>>>>>>>>>>>>>>>>>>>>>FOR COMPONENT NO. 01<<<<<<<<<<<<<<<<<<<<<<<<<<<<<<<<<<<<<<<<<<<<<<<<<<<<<<<


                                            -------------------------------------------
                                                      TRANSPORT STEP NO.  819
                                            -------------------------------------------

 TOTAL ELAPSED TIME SINCE BEGINNING OF SIMULATION =   24.60000    D   
 .....................................................................

                     CUMULATIVE MASS BUDGETS AT END OF TRANSPORT STEP  819, TIME STEP    1, STRESS PERIOD    2
                     -----------------------------------------------------------------------------------------

                                                             IN                           OUT
                                                      ----------------             ----------------
                               CONSTANT CONCENTRATION:    0.000000                    0.000000    
                                        CONSTANT HEAD:    0.000000                  -0.9493945E-02
                                                WELLS:   0.1518204E-01                0.000000    
                               MASS STOR (FLOW MODEL):    0.000000                    0.000000    
                                MASS STORAGE (SOLUTE):   0.8460251E-05              -0.5696788E-02
                            ---------------------------------------------------------------------------
                                              [TOTAL]:   0.1519050E-01 KG           -0.1519073E-01 KG  

                                                          NET (IN - OUT):  -0.2365559E-06
                                                   DISCREPANCY (PERCENT):  -0.1557251E-02
     1 CALLS TO GCG PACKAGE FOR TRANSPORT TIME STEP   820 IN FLOW TIME STEP     1 STRESS PERIOD     2
      4 TOTAL ITERATIONS
     1 CALLS TO GCG PACKAGE FOR TRANSPORT TIME STEP   821 IN FLOW TIME STEP     1 STRESS PERIOD     2
      4 TOTAL ITERATIONS
     1 CALLS TO GCG PACKAGE FOR TRANSPORT TIME STEP   822 IN FLOW TIME STEP     1 STRESS PERIOD     2
      4 TOTAL ITERATIONS
     1 CALLS TO GCG PACKAGE FOR TRANSPORT TIME STEP   823 IN FLOW TIME STEP     1 STRESS PERIOD     2
      4 TOTAL ITERATIONS
     1 CALLS TO GCG PACKAGE FOR TRANSPORT TIME STEP   824 IN FLOW TIME STEP     1 STRESS PERIOD     2
      4 TOTAL ITERATIONS
     1 CALLS TO GCG PACKAGE FOR TRANSPORT TIME STEP   825 IN FLOW TIME STEP     1 STRESS PERIOD     2
      4 TOTAL ITERATIONS
     1 CALLS TO GCG PACKAGE FOR TRANSPORT TIME STEP   826 IN FLOW TIME STEP     1 STRESS PERIOD     2
      4 TOTAL ITERATIONS
     1 CALLS TO GCG PACKAGE FOR TRANSPORT TIME STEP   827 IN FLOW TIME STEP     1 STRESS PERIOD     2
      4 TOTAL ITERATIONS
     1 CALLS TO GCG PACKAGE FOR TRANSPORT TIME STEP   828 IN FLOW TIME STEP     1 STRESS PERIOD     2
      4 TOTAL ITERATIONS
     1 CALLS TO GCG PACKAGE FOR TRANSPORT TIME STEP   829 IN FLOW TIME STEP     1 STRESS PERIOD     2
      4 TOTAL ITERATIONS
     1 CALLS TO GCG PACKAGE FOR TRANSPORT TIME STEP   830 IN FLOW TIME STEP     1 STRESS PERIOD     2
      4 TOTAL ITERATIONS
     1 CALLS TO GCG PACKAGE FOR TRANSPORT TIME STEP   831 IN FLOW TIME STEP     1 STRESS PERIOD     2
      4 TOTAL ITERATIONS
     1 CALLS TO GCG PACKAGE FOR TRANSPORT TIME STEP   832 IN FLOW TIME STEP     1 STRESS PERIOD     2
      4 TOTAL ITERATIONS
     1 CALLS TO GCG PACKAGE FOR TRANSPORT TIME STEP   833 IN FLOW TIME STEP     1 STRESS PERIOD     2
      4 TOTAL ITERATIONS
     1 CALLS TO GCG PACKAGE FOR TRANSPORT TIME STEP   834 IN FLOW TIME STEP     1 STRESS PERIOD     2
      4 TOTAL ITERATIONS
     1 CALLS TO GCG PACKAGE FOR TRANSPORT TIME STEP   835 IN FLOW TIME STEP     1 STRESS PERIOD     2
      4 TOTAL ITERATIONS
     1 CALLS TO GCG PACKAGE FOR TRANSPORT TIME STEP   836 IN FLOW TIME STEP     1 STRESS PERIOD     2
      4 TOTAL ITERATIONS
     1 CALLS TO GCG PACKAGE FOR TRANSPORT TIME STEP   837 IN FLOW TIME STEP     1 STRESS PERIOD     2
      4 TOTAL ITERATIONS
     1 CALLS TO GCG PACKAGE FOR TRANSPORT TIME STEP   838 IN FLOW TIME STEP     1 STRESS PERIOD     2
      4 TOTAL ITERATIONS
     1 CALLS TO GCG PACKAGE FOR TRANSPORT TIME STEP   839 IN FLOW TIME STEP     1 STRESS PERIOD     2
      4 TOTAL ITERATIONS
     1 CALLS TO GCG PACKAGE FOR TRANSPORT TIME STEP   840 IN FLOW TIME STEP     1 STRESS PERIOD     2
      4 TOTAL ITERATIONS
     1 CALLS TO GCG PACKAGE FOR TRANSPORT TIME STEP   841 IN FLOW TIME STEP     1 STRESS PERIOD     2
      4 TOTAL ITERATIONS
     1 CALLS TO GCG PACKAGE FOR TRANSPORT TIME STEP   842 IN FLOW TIME STEP     1 STRESS PERIOD     2
      4 TOTAL ITERATIONS
     1 CALLS TO GCG PACKAGE FOR TRANSPORT TIME STEP   843 IN FLOW TIME STEP     1 STRESS PERIOD     2
      4 TOTAL ITERATIONS
     1 CALLS TO GCG PACKAGE FOR TRANSPORT TIME STEP   844 IN FLOW TIME STEP     1 STRESS PERIOD     2
      4 TOTAL ITERATIONS
     1 CALLS TO GCG PACKAGE FOR TRANSPORT TIME STEP   845 IN FLOW TIME STEP     1 STRESS PERIOD     2
      4 TOTAL ITERATIONS
     1 CALLS TO GCG PACKAGE FOR TRANSPORT TIME STEP   846 IN FLOW TIME STEP     1 STRESS PERIOD     2
      4 TOTAL ITERATIONS
     1 CALLS TO GCG PACKAGE FOR TRANSPORT TIME STEP   847 IN FLOW TIME STEP     1 STRESS PERIOD     2
      4 TOTAL ITERATIONS
     1 CALLS TO GCG PACKAGE FOR TRANSPORT TIME STEP   848 IN FLOW TIME STEP     1 STRESS PERIOD     2
      4 TOTAL ITERATIONS
     1 CALLS TO GCG PACKAGE FOR TRANSPORT TIME STEP   849 IN FLOW TIME STEP     1 STRESS PERIOD     2
      4 TOTAL ITERATIONS
     1 CALLS TO GCG PACKAGE FOR TRANSPORT TIME STEP   850 IN FLOW TIME STEP     1 STRESS PERIOD     2
      4 TOTAL ITERATIONS
     1 CALLS TO GCG PACKAGE FOR TRANSPORT TIME STEP   851 IN FLOW TIME STEP     1 STRESS PERIOD     2
      4 TOTAL ITERATIONS
     1 CALLS TO GCG PACKAGE FOR TRANSPORT TIME STEP   852 IN FLOW TIME STEP     1 STRESS PERIOD     2
      4 TOTAL ITERATIONS
     1 CALLS TO GCG PACKAGE FOR TRANSPORT TIME STEP   853 IN FLOW TIME STEP     1 STRESS PERIOD     2
      4 TOTAL ITERATIONS
     1 CALLS TO GCG PACKAGE FOR TRANSPORT TIME STEP   854 IN FLOW TIME STEP     1 STRESS PERIOD     2
      4 TOTAL ITERATIONS
     1 CALLS TO GCG PACKAGE FOR TRANSPORT TIME STEP   855 IN FLOW TIME STEP     1 STRESS PERIOD     2
      4 TOTAL ITERATIONS
     1 CALLS TO GCG PACKAGE FOR TRANSPORT TIME STEP   856 IN FLOW TIME STEP     1 STRESS PERIOD     2
      4 TOTAL ITERATIONS
     1 CALLS TO GCG PACKAGE FOR TRANSPORT TIME STEP   857 IN FLOW TIME STEP     1 STRESS PERIOD     2
      4 TOTAL ITERATIONS
     1 CALLS TO GCG PACKAGE FOR TRANSPORT TIME STEP   858 IN FLOW TIME STEP     1 STRESS PERIOD     2
      4 TOTAL ITERATIONS
     1 CALLS TO GCG PACKAGE FOR TRANSPORT TIME STEP   859 IN FLOW TIME STEP     1 STRESS PERIOD     2
      4 TOTAL ITERATIONS
     1 CALLS TO GCG PACKAGE FOR TRANSPORT TIME STEP   860 IN FLOW TIME STEP     1 STRESS PERIOD     2
      4 TOTAL ITERATIONS
     1 CALLS TO GCG PACKAGE FOR TRANSPORT TIME STEP   861 IN FLOW TIME STEP     1 STRESS PERIOD     2
      4 TOTAL ITERATIONS
     1 CALLS TO GCG PACKAGE FOR TRANSPORT TIME STEP   862 IN FLOW TIME STEP     1 STRESS PERIOD     2
      4 TOTAL ITERATIONS
     1 CALLS TO GCG PACKAGE FOR TRANSPORT TIME STEP   863 IN FLOW TIME STEP     1 STRESS PERIOD     2
      4 TOTAL ITERATIONS
     1 CALLS TO GCG PACKAGE FOR TRANSPORT TIME STEP   864 IN FLOW TIME STEP     1 STRESS PERIOD     2
      4 TOTAL ITERATIONS
     1 CALLS TO GCG PACKAGE FOR TRANSPORT TIME STEP   865 IN FLOW TIME STEP     1 STRESS PERIOD     2
      3 TOTAL ITERATIONS



 >>>>>>>>>>>>>>>>>>>>>>>>>>>>>>>>>>>>>>>>>>>>>>>>>>>>>>>FOR COMPONENT NO. 01<<<<<<<<<<<<<<<<<<<<<<<<<<<<<<<<<<<<<<<<<<<<<<<<<<<<<<<


                                            -------------------------------------------
                                                      TRANSPORT STEP NO.  865
                                            -------------------------------------------

 TOTAL ELAPSED TIME SINCE BEGINNING OF SIMULATION =   25.42000    D   
 .....................................................................

                     CUMULATIVE MASS BUDGETS AT END OF TRANSPORT STEP  865, TIME STEP    1, STRESS PERIOD    2
                     -----------------------------------------------------------------------------------------

                                                             IN                           OUT
                                                      ----------------             ----------------
                               CONSTANT CONCENTRATION:    0.000000                    0.000000    
                                        CONSTANT HEAD:    0.000000                  -0.9977041E-02
                                                WELLS:   0.1568812E-01                0.000000    
                               MASS STOR (FLOW MODEL):    0.000000                    0.000000    
                                MASS STORAGE (SOLUTE):   0.8494077E-05              -0.5719825E-02
                            ---------------------------------------------------------------------------
                                              [TOTAL]:   0.1569661E-01 KG           -0.1569686E-01 KG  

                                                          NET (IN - OUT):  -0.2514571E-06
                                                   DISCREPANCY (PERCENT):  -0.1601970E-02
     1 CALLS TO GCG PACKAGE FOR TRANSPORT TIME STEP   866 IN FLOW TIME STEP     1 STRESS PERIOD     2
      4 TOTAL ITERATIONS
     1 CALLS TO GCG PACKAGE FOR TRANSPORT TIME STEP   867 IN FLOW TIME STEP     1 STRESS PERIOD     2
      4 TOTAL ITERATIONS
     1 CALLS TO GCG PACKAGE FOR TRANSPORT TIME STEP   868 IN FLOW TIME STEP     1 STRESS PERIOD     2
      4 TOTAL ITERATIONS
     1 CALLS TO GCG PACKAGE FOR TRANSPORT TIME STEP   869 IN FLOW TIME STEP     1 STRESS PERIOD     2
      4 TOTAL ITERATIONS
     1 CALLS TO GCG PACKAGE FOR TRANSPORT TIME STEP   870 IN FLOW TIME STEP     1 STRESS PERIOD     2
      4 TOTAL ITERATIONS
     1 CALLS TO GCG PACKAGE FOR TRANSPORT TIME STEP   871 IN FLOW TIME STEP     1 STRESS PERIOD     2
      4 TOTAL ITERATIONS
     1 CALLS TO GCG PACKAGE FOR TRANSPORT TIME STEP   872 IN FLOW TIME STEP     1 STRESS PERIOD     2
      4 TOTAL ITERATIONS
     1 CALLS TO GCG PACKAGE FOR TRANSPORT TIME STEP   873 IN FLOW TIME STEP     1 STRESS PERIOD     2
      4 TOTAL ITERATIONS
     1 CALLS TO GCG PACKAGE FOR TRANSPORT TIME STEP   874 IN FLOW TIME STEP     1 STRESS PERIOD     2
      4 TOTAL ITERATIONS
     1 CALLS TO GCG PACKAGE FOR TRANSPORT TIME STEP   875 IN FLOW TIME STEP     1 STRESS PERIOD     2
      4 TOTAL ITERATIONS
     1 CALLS TO GCG PACKAGE FOR TRANSPORT TIME STEP   876 IN FLOW TIME STEP     1 STRESS PERIOD     2
      4 TOTAL ITERATIONS
     1 CALLS TO GCG PACKAGE FOR TRANSPORT TIME STEP   877 IN FLOW TIME STEP     1 STRESS PERIOD     2
      4 TOTAL ITERATIONS
     1 CALLS TO GCG PACKAGE FOR TRANSPORT TIME STEP   878 IN FLOW TIME STEP     1 STRESS PERIOD     2
      4 TOTAL ITERATIONS
     1 CALLS TO GCG PACKAGE FOR TRANSPORT TIME STEP   879 IN FLOW TIME STEP     1 STRESS PERIOD     2
      4 TOTAL ITERATIONS
     1 CALLS TO GCG PACKAGE FOR TRANSPORT TIME STEP   880 IN FLOW TIME STEP     1 STRESS PERIOD     2
      4 TOTAL ITERATIONS
     1 CALLS TO GCG PACKAGE FOR TRANSPORT TIME STEP   881 IN FLOW TIME STEP     1 STRESS PERIOD     2
      4 TOTAL ITERATIONS
     1 CALLS TO GCG PACKAGE FOR TRANSPORT TIME STEP   882 IN FLOW TIME STEP     1 STRESS PERIOD     2
      4 TOTAL ITERATIONS
     1 CALLS TO GCG PACKAGE FOR TRANSPORT TIME STEP   883 IN FLOW TIME STEP     1 STRESS PERIOD     2
      4 TOTAL ITERATIONS
     1 CALLS TO GCG PACKAGE FOR TRANSPORT TIME STEP   884 IN FLOW TIME STEP     1 STRESS PERIOD     2
      4 TOTAL ITERATIONS
     1 CALLS TO GCG PACKAGE FOR TRANSPORT TIME STEP   885 IN FLOW TIME STEP     1 STRESS PERIOD     2
      4 TOTAL ITERATIONS
     1 CALLS TO GCG PACKAGE FOR TRANSPORT TIME STEP   886 IN FLOW TIME STEP     1 STRESS PERIOD     2
      4 TOTAL ITERATIONS
     1 CALLS TO GCG PACKAGE FOR TRANSPORT TIME STEP   887 IN FLOW TIME STEP     1 STRESS PERIOD     2
      4 TOTAL ITERATIONS
     1 CALLS TO GCG PACKAGE FOR TRANSPORT TIME STEP   888 IN FLOW TIME STEP     1 STRESS PERIOD     2
      4 TOTAL ITERATIONS
     1 CALLS TO GCG PACKAGE FOR TRANSPORT TIME STEP   889 IN FLOW TIME STEP     1 STRESS PERIOD     2
      4 TOTAL ITERATIONS
     1 CALLS TO GCG PACKAGE FOR TRANSPORT TIME STEP   890 IN FLOW TIME STEP     1 STRESS PERIOD     2
      4 TOTAL ITERATIONS
     1 CALLS TO GCG PACKAGE FOR TRANSPORT TIME STEP   891 IN FLOW TIME STEP     1 STRESS PERIOD     2
      4 TOTAL ITERATIONS
     1 CALLS TO GCG PACKAGE FOR TRANSPORT TIME STEP   892 IN FLOW TIME STEP     1 STRESS PERIOD     2
      4 TOTAL ITERATIONS
     1 CALLS TO GCG PACKAGE FOR TRANSPORT TIME STEP   893 IN FLOW TIME STEP     1 STRESS PERIOD     2
      4 TOTAL ITERATIONS
     1 CALLS TO GCG PACKAGE FOR TRANSPORT TIME STEP   894 IN FLOW TIME STEP     1 STRESS PERIOD     2
      4 TOTAL ITERATIONS
     1 CALLS TO GCG PACKAGE FOR TRANSPORT TIME STEP   895 IN FLOW TIME STEP     1 STRESS PERIOD     2
      4 TOTAL ITERATIONS
     1 CALLS TO GCG PACKAGE FOR TRANSPORT TIME STEP   896 IN FLOW TIME STEP     1 STRESS PERIOD     2
      4 TOTAL ITERATIONS
     1 CALLS TO GCG PACKAGE FOR TRANSPORT TIME STEP   897 IN FLOW TIME STEP     1 STRESS PERIOD     2
      4 TOTAL ITERATIONS
     1 CALLS TO GCG PACKAGE FOR TRANSPORT TIME STEP   898 IN FLOW TIME STEP     1 STRESS PERIOD     2
      4 TOTAL ITERATIONS
     1 CALLS TO GCG PACKAGE FOR TRANSPORT TIME STEP   899 IN FLOW TIME STEP     1 STRESS PERIOD     2
      4 TOTAL ITERATIONS
     1 CALLS TO GCG PACKAGE FOR TRANSPORT TIME STEP   900 IN FLOW TIME STEP     1 STRESS PERIOD     2
      4 TOTAL ITERATIONS
     1 CALLS TO GCG PACKAGE FOR TRANSPORT TIME STEP   901 IN FLOW TIME STEP     1 STRESS PERIOD     2
      4 TOTAL ITERATIONS
     1 CALLS TO GCG PACKAGE FOR TRANSPORT TIME STEP   902 IN FLOW TIME STEP     1 STRESS PERIOD     2
      4 TOTAL ITERATIONS
     1 CALLS TO GCG PACKAGE FOR TRANSPORT TIME STEP   903 IN FLOW TIME STEP     1 STRESS PERIOD     2
      4 TOTAL ITERATIONS
     1 CALLS TO GCG PACKAGE FOR TRANSPORT TIME STEP   904 IN FLOW TIME STEP     1 STRESS PERIOD     2
      4 TOTAL ITERATIONS
     1 CALLS TO GCG PACKAGE FOR TRANSPORT TIME STEP   905 IN FLOW TIME STEP     1 STRESS PERIOD     2
      4 TOTAL ITERATIONS
     1 CALLS TO GCG PACKAGE FOR TRANSPORT TIME STEP   906 IN FLOW TIME STEP     1 STRESS PERIOD     2
      4 TOTAL ITERATIONS
     1 CALLS TO GCG PACKAGE FOR TRANSPORT TIME STEP   907 IN FLOW TIME STEP     1 STRESS PERIOD     2
      4 TOTAL ITERATIONS
     1 CALLS TO GCG PACKAGE FOR TRANSPORT TIME STEP   908 IN FLOW TIME STEP     1 STRESS PERIOD     2
      4 TOTAL ITERATIONS
     1 CALLS TO GCG PACKAGE FOR TRANSPORT TIME STEP   909 IN FLOW TIME STEP     1 STRESS PERIOD     2
      4 TOTAL ITERATIONS
     1 CALLS TO GCG PACKAGE FOR TRANSPORT TIME STEP   910 IN FLOW TIME STEP     1 STRESS PERIOD     2
      4 TOTAL ITERATIONS
     1 CALLS TO GCG PACKAGE FOR TRANSPORT TIME STEP   911 IN FLOW TIME STEP     1 STRESS PERIOD     2
      3 TOTAL ITERATIONS



 >>>>>>>>>>>>>>>>>>>>>>>>>>>>>>>>>>>>>>>>>>>>>>>>>>>>>>>FOR COMPONENT NO. 01<<<<<<<<<<<<<<<<<<<<<<<<<<<<<<<<<<<<<<<<<<<<<<<<<<<<<<<


                                            -------------------------------------------
                                                      TRANSPORT STEP NO.  911
                                            -------------------------------------------

 TOTAL ELAPSED TIME SINCE BEGINNING OF SIMULATION =   26.24000    D   
 .....................................................................

                     CUMULATIVE MASS BUDGETS AT END OF TRANSPORT STEP  911, TIME STEP    1, STRESS PERIOD    2
                     -----------------------------------------------------------------------------------------

                                                             IN                           OUT
                                                      ----------------             ----------------
                               CONSTANT CONCENTRATION:    0.000000                    0.000000    
                                        CONSTANT HEAD:    0.000000                  -0.1046154E-01
                                                WELLS:   0.1619416E-01                0.000000    
                               MASS STOR (FLOW MODEL):    0.000000                    0.000000    
                                MASS STORAGE (SOLUTE):   0.8528024E-05              -0.5741457E-02
                            ---------------------------------------------------------------------------
                                              [TOTAL]:   0.1620269E-01 KG           -0.1620300E-01 KG  

                                                          NET (IN - OUT):  -0.3054738E-06
                                                   DISCREPANCY (PERCENT):  -0.1885310E-02
     1 CALLS TO GCG PACKAGE FOR TRANSPORT TIME STEP   912 IN FLOW TIME STEP     1 STRESS PERIOD     2
      4 TOTAL ITERATIONS
     1 CALLS TO GCG PACKAGE FOR TRANSPORT TIME STEP   913 IN FLOW TIME STEP     1 STRESS PERIOD     2
      4 TOTAL ITERATIONS
     1 CALLS TO GCG PACKAGE FOR TRANSPORT TIME STEP   914 IN FLOW TIME STEP     1 STRESS PERIOD     2
      4 TOTAL ITERATIONS
     1 CALLS TO GCG PACKAGE FOR TRANSPORT TIME STEP   915 IN FLOW TIME STEP     1 STRESS PERIOD     2
      4 TOTAL ITERATIONS
     1 CALLS TO GCG PACKAGE FOR TRANSPORT TIME STEP   916 IN FLOW TIME STEP     1 STRESS PERIOD     2
      4 TOTAL ITERATIONS
     1 CALLS TO GCG PACKAGE FOR TRANSPORT TIME STEP   917 IN FLOW TIME STEP     1 STRESS PERIOD     2
      4 TOTAL ITERATIONS
     1 CALLS TO GCG PACKAGE FOR TRANSPORT TIME STEP   918 IN FLOW TIME STEP     1 STRESS PERIOD     2
      4 TOTAL ITERATIONS
     1 CALLS TO GCG PACKAGE FOR TRANSPORT TIME STEP   919 IN FLOW TIME STEP     1 STRESS PERIOD     2
      4 TOTAL ITERATIONS
     1 CALLS TO GCG PACKAGE FOR TRANSPORT TIME STEP   920 IN FLOW TIME STEP     1 STRESS PERIOD     2
      4 TOTAL ITERATIONS
     1 CALLS TO GCG PACKAGE FOR TRANSPORT TIME STEP   921 IN FLOW TIME STEP     1 STRESS PERIOD     2
      4 TOTAL ITERATIONS
     1 CALLS TO GCG PACKAGE FOR TRANSPORT TIME STEP   922 IN FLOW TIME STEP     1 STRESS PERIOD     2
      4 TOTAL ITERATIONS
     1 CALLS TO GCG PACKAGE FOR TRANSPORT TIME STEP   923 IN FLOW TIME STEP     1 STRESS PERIOD     2
      4 TOTAL ITERATIONS
     1 CALLS TO GCG PACKAGE FOR TRANSPORT TIME STEP   924 IN FLOW TIME STEP     1 STRESS PERIOD     2
      4 TOTAL ITERATIONS
     1 CALLS TO GCG PACKAGE FOR TRANSPORT TIME STEP   925 IN FLOW TIME STEP     1 STRESS PERIOD     2
      4 TOTAL ITERATIONS
     1 CALLS TO GCG PACKAGE FOR TRANSPORT TIME STEP   926 IN FLOW TIME STEP     1 STRESS PERIOD     2
      4 TOTAL ITERATIONS
     1 CALLS TO GCG PACKAGE FOR TRANSPORT TIME STEP   927 IN FLOW TIME STEP     1 STRESS PERIOD     2
      4 TOTAL ITERATIONS
     1 CALLS TO GCG PACKAGE FOR TRANSPORT TIME STEP   928 IN FLOW TIME STEP     1 STRESS PERIOD     2
      4 TOTAL ITERATIONS
     1 CALLS TO GCG PACKAGE FOR TRANSPORT TIME STEP   929 IN FLOW TIME STEP     1 STRESS PERIOD     2
      4 TOTAL ITERATIONS
     1 CALLS TO GCG PACKAGE FOR TRANSPORT TIME STEP   930 IN FLOW TIME STEP     1 STRESS PERIOD     2
      4 TOTAL ITERATIONS
     1 CALLS TO GCG PACKAGE FOR TRANSPORT TIME STEP   931 IN FLOW TIME STEP     1 STRESS PERIOD     2
      4 TOTAL ITERATIONS
     1 CALLS TO GCG PACKAGE FOR TRANSPORT TIME STEP   932 IN FLOW TIME STEP     1 STRESS PERIOD     2
      4 TOTAL ITERATIONS
     1 CALLS TO GCG PACKAGE FOR TRANSPORT TIME STEP   933 IN FLOW TIME STEP     1 STRESS PERIOD     2
      4 TOTAL ITERATIONS
     1 CALLS TO GCG PACKAGE FOR TRANSPORT TIME STEP   934 IN FLOW TIME STEP     1 STRESS PERIOD     2
      4 TOTAL ITERATIONS
     1 CALLS TO GCG PACKAGE FOR TRANSPORT TIME STEP   935 IN FLOW TIME STEP     1 STRESS PERIOD     2
      4 TOTAL ITERATIONS
     1 CALLS TO GCG PACKAGE FOR TRANSPORT TIME STEP   936 IN FLOW TIME STEP     1 STRESS PERIOD     2
      4 TOTAL ITERATIONS
     1 CALLS TO GCG PACKAGE FOR TRANSPORT TIME STEP   937 IN FLOW TIME STEP     1 STRESS PERIOD     2
      4 TOTAL ITERATIONS
     1 CALLS TO GCG PACKAGE FOR TRANSPORT TIME STEP   938 IN FLOW TIME STEP     1 STRESS PERIOD     2
      4 TOTAL ITERATIONS
     1 CALLS TO GCG PACKAGE FOR TRANSPORT TIME STEP   939 IN FLOW TIME STEP     1 STRESS PERIOD     2
      4 TOTAL ITERATIONS
     1 CALLS TO GCG PACKAGE FOR TRANSPORT TIME STEP   940 IN FLOW TIME STEP     1 STRESS PERIOD     2
      4 TOTAL ITERATIONS
     1 CALLS TO GCG PACKAGE FOR TRANSPORT TIME STEP   941 IN FLOW TIME STEP     1 STRESS PERIOD     2
      4 TOTAL ITERATIONS
     1 CALLS TO GCG PACKAGE FOR TRANSPORT TIME STEP   942 IN FLOW TIME STEP     1 STRESS PERIOD     2
      4 TOTAL ITERATIONS
     1 CALLS TO GCG PACKAGE FOR TRANSPORT TIME STEP   943 IN FLOW TIME STEP     1 STRESS PERIOD     2
      4 TOTAL ITERATIONS
     1 CALLS TO GCG PACKAGE FOR TRANSPORT TIME STEP   944 IN FLOW TIME STEP     1 STRESS PERIOD     2
      4 TOTAL ITERATIONS
     1 CALLS TO GCG PACKAGE FOR TRANSPORT TIME STEP   945 IN FLOW TIME STEP     1 STRESS PERIOD     2
      4 TOTAL ITERATIONS
     1 CALLS TO GCG PACKAGE FOR TRANSPORT TIME STEP   946 IN FLOW TIME STEP     1 STRESS PERIOD     2
      4 TOTAL ITERATIONS
     1 CALLS TO GCG PACKAGE FOR TRANSPORT TIME STEP   947 IN FLOW TIME STEP     1 STRESS PERIOD     2
      4 TOTAL ITERATIONS
     1 CALLS TO GCG PACKAGE FOR TRANSPORT TIME STEP   948 IN FLOW TIME STEP     1 STRESS PERIOD     2
      4 TOTAL ITERATIONS
     1 CALLS TO GCG PACKAGE FOR TRANSPORT TIME STEP   949 IN FLOW TIME STEP     1 STRESS PERIOD     2
      4 TOTAL ITERATIONS
     1 CALLS TO GCG PACKAGE FOR TRANSPORT TIME STEP   950 IN FLOW TIME STEP     1 STRESS PERIOD     2
      4 TOTAL ITERATIONS
     1 CALLS TO GCG PACKAGE FOR TRANSPORT TIME STEP   951 IN FLOW TIME STEP     1 STRESS PERIOD     2
      4 TOTAL ITERATIONS
     1 CALLS TO GCG PACKAGE FOR TRANSPORT TIME STEP   952 IN FLOW TIME STEP     1 STRESS PERIOD     2
      4 TOTAL ITERATIONS
     1 CALLS TO GCG PACKAGE FOR TRANSPORT TIME STEP   953 IN FLOW TIME STEP     1 STRESS PERIOD     2
      4 TOTAL ITERATIONS
     1 CALLS TO GCG PACKAGE FOR TRANSPORT TIME STEP   954 IN FLOW TIME STEP     1 STRESS PERIOD     2
      4 TOTAL ITERATIONS
     1 CALLS TO GCG PACKAGE FOR TRANSPORT TIME STEP   955 IN FLOW TIME STEP     1 STRESS PERIOD     2
      4 TOTAL ITERATIONS
     1 CALLS TO GCG PACKAGE FOR TRANSPORT TIME STEP   956 IN FLOW TIME STEP     1 STRESS PERIOD     2
      4 TOTAL ITERATIONS
     1 CALLS TO GCG PACKAGE FOR TRANSPORT TIME STEP   957 IN FLOW TIME STEP     1 STRESS PERIOD     2
      3 TOTAL ITERATIONS



 >>>>>>>>>>>>>>>>>>>>>>>>>>>>>>>>>>>>>>>>>>>>>>>>>>>>>>>FOR COMPONENT NO. 01<<<<<<<<<<<<<<<<<<<<<<<<<<<<<<<<<<<<<<<<<<<<<<<<<<<<<<<


                                            -------------------------------------------
                                                      TRANSPORT STEP NO.  957
                                            -------------------------------------------

 TOTAL ELAPSED TIME SINCE BEGINNING OF SIMULATION =   27.06000    D   
 .....................................................................

                     CUMULATIVE MASS BUDGETS AT END OF TRANSPORT STEP  957, TIME STEP    1, STRESS PERIOD    2
                     -----------------------------------------------------------------------------------------

                                                             IN                           OUT
                                                      ----------------             ----------------
                               CONSTANT CONCENTRATION:    0.000000                    0.000000    
                                        CONSTANT HEAD:    0.000000                  -0.1094736E-01
                                                WELLS:   0.1670021E-01                0.000000    
                               MASS STOR (FLOW MODEL):    0.000000                    0.000000    
                                MASS STORAGE (SOLUTE):   0.8562128E-05              -0.5761773E-02
                            ---------------------------------------------------------------------------
                                              [TOTAL]:   0.1670877E-01 KG           -0.1670913E-01 KG  

                                                          NET (IN - OUT):  -0.3557652E-06
                                                   DISCREPANCY (PERCENT):  -0.2129189E-02
     1 CALLS TO GCG PACKAGE FOR TRANSPORT TIME STEP   958 IN FLOW TIME STEP     1 STRESS PERIOD     2
      4 TOTAL ITERATIONS
     1 CALLS TO GCG PACKAGE FOR TRANSPORT TIME STEP   959 IN FLOW TIME STEP     1 STRESS PERIOD     2
      4 TOTAL ITERATIONS
     1 CALLS TO GCG PACKAGE FOR TRANSPORT TIME STEP   960 IN FLOW TIME STEP     1 STRESS PERIOD     2
      4 TOTAL ITERATIONS
     1 CALLS TO GCG PACKAGE FOR TRANSPORT TIME STEP   961 IN FLOW TIME STEP     1 STRESS PERIOD     2
      4 TOTAL ITERATIONS
     1 CALLS TO GCG PACKAGE FOR TRANSPORT TIME STEP   962 IN FLOW TIME STEP     1 STRESS PERIOD     2
      4 TOTAL ITERATIONS
     1 CALLS TO GCG PACKAGE FOR TRANSPORT TIME STEP   963 IN FLOW TIME STEP     1 STRESS PERIOD     2
      4 TOTAL ITERATIONS
     1 CALLS TO GCG PACKAGE FOR TRANSPORT TIME STEP   964 IN FLOW TIME STEP     1 STRESS PERIOD     2
      4 TOTAL ITERATIONS
     1 CALLS TO GCG PACKAGE FOR TRANSPORT TIME STEP   965 IN FLOW TIME STEP     1 STRESS PERIOD     2
      4 TOTAL ITERATIONS
     1 CALLS TO GCG PACKAGE FOR TRANSPORT TIME STEP   966 IN FLOW TIME STEP     1 STRESS PERIOD     2
      4 TOTAL ITERATIONS
     1 CALLS TO GCG PACKAGE FOR TRANSPORT TIME STEP   967 IN FLOW TIME STEP     1 STRESS PERIOD     2
      4 TOTAL ITERATIONS
     1 CALLS TO GCG PACKAGE FOR TRANSPORT TIME STEP   968 IN FLOW TIME STEP     1 STRESS PERIOD     2
      4 TOTAL ITERATIONS
     1 CALLS TO GCG PACKAGE FOR TRANSPORT TIME STEP   969 IN FLOW TIME STEP     1 STRESS PERIOD     2
      4 TOTAL ITERATIONS
     1 CALLS TO GCG PACKAGE FOR TRANSPORT TIME STEP   970 IN FLOW TIME STEP     1 STRESS PERIOD     2
      4 TOTAL ITERATIONS
     1 CALLS TO GCG PACKAGE FOR TRANSPORT TIME STEP   971 IN FLOW TIME STEP     1 STRESS PERIOD     2
      4 TOTAL ITERATIONS
     1 CALLS TO GCG PACKAGE FOR TRANSPORT TIME STEP   972 IN FLOW TIME STEP     1 STRESS PERIOD     2
      4 TOTAL ITERATIONS
     1 CALLS TO GCG PACKAGE FOR TRANSPORT TIME STEP   973 IN FLOW TIME STEP     1 STRESS PERIOD     2
      4 TOTAL ITERATIONS
     1 CALLS TO GCG PACKAGE FOR TRANSPORT TIME STEP   974 IN FLOW TIME STEP     1 STRESS PERIOD     2
      4 TOTAL ITERATIONS
     1 CALLS TO GCG PACKAGE FOR TRANSPORT TIME STEP   975 IN FLOW TIME STEP     1 STRESS PERIOD     2
      4 TOTAL ITERATIONS
     1 CALLS TO GCG PACKAGE FOR TRANSPORT TIME STEP   976 IN FLOW TIME STEP     1 STRESS PERIOD     2
      4 TOTAL ITERATIONS
     1 CALLS TO GCG PACKAGE FOR TRANSPORT TIME STEP   977 IN FLOW TIME STEP     1 STRESS PERIOD     2
      4 TOTAL ITERATIONS
     1 CALLS TO GCG PACKAGE FOR TRANSPORT TIME STEP   978 IN FLOW TIME STEP     1 STRESS PERIOD     2
      4 TOTAL ITERATIONS
     1 CALLS TO GCG PACKAGE FOR TRANSPORT TIME STEP   979 IN FLOW TIME STEP     1 STRESS PERIOD     2
      4 TOTAL ITERATIONS
     1 CALLS TO GCG PACKAGE FOR TRANSPORT TIME STEP   980 IN FLOW TIME STEP     1 STRESS PERIOD     2
      4 TOTAL ITERATIONS
     1 CALLS TO GCG PACKAGE FOR TRANSPORT TIME STEP   981 IN FLOW TIME STEP     1 STRESS PERIOD     2
      4 TOTAL ITERATIONS
     1 CALLS TO GCG PACKAGE FOR TRANSPORT TIME STEP   982 IN FLOW TIME STEP     1 STRESS PERIOD     2
      4 TOTAL ITERATIONS
     1 CALLS TO GCG PACKAGE FOR TRANSPORT TIME STEP   983 IN FLOW TIME STEP     1 STRESS PERIOD     2
      4 TOTAL ITERATIONS
     1 CALLS TO GCG PACKAGE FOR TRANSPORT TIME STEP   984 IN FLOW TIME STEP     1 STRESS PERIOD     2
      4 TOTAL ITERATIONS
     1 CALLS TO GCG PACKAGE FOR TRANSPORT TIME STEP   985 IN FLOW TIME STEP     1 STRESS PERIOD     2
      4 TOTAL ITERATIONS
     1 CALLS TO GCG PACKAGE FOR TRANSPORT TIME STEP   986 IN FLOW TIME STEP     1 STRESS PERIOD     2
      4 TOTAL ITERATIONS
     1 CALLS TO GCG PACKAGE FOR TRANSPORT TIME STEP   987 IN FLOW TIME STEP     1 STRESS PERIOD     2
      4 TOTAL ITERATIONS
     1 CALLS TO GCG PACKAGE FOR TRANSPORT TIME STEP   988 IN FLOW TIME STEP     1 STRESS PERIOD     2
      4 TOTAL ITERATIONS
     1 CALLS TO GCG PACKAGE FOR TRANSPORT TIME STEP   989 IN FLOW TIME STEP     1 STRESS PERIOD     2
      4 TOTAL ITERATIONS
     1 CALLS TO GCG PACKAGE FOR TRANSPORT TIME STEP   990 IN FLOW TIME STEP     1 STRESS PERIOD     2
      4 TOTAL ITERATIONS
     1 CALLS TO GCG PACKAGE FOR TRANSPORT TIME STEP   991 IN FLOW TIME STEP     1 STRESS PERIOD     2
      4 TOTAL ITERATIONS
     1 CALLS TO GCG PACKAGE FOR TRANSPORT TIME STEP   992 IN FLOW TIME STEP     1 STRESS PERIOD     2
      4 TOTAL ITERATIONS
     1 CALLS TO GCG PACKAGE FOR TRANSPORT TIME STEP   993 IN FLOW TIME STEP     1 STRESS PERIOD     2
      4 TOTAL ITERATIONS
     1 CALLS TO GCG PACKAGE FOR TRANSPORT TIME STEP   994 IN FLOW TIME STEP     1 STRESS PERIOD     2
      4 TOTAL ITERATIONS
     1 CALLS TO GCG PACKAGE FOR TRANSPORT TIME STEP   995 IN FLOW TIME STEP     1 STRESS PERIOD     2
      4 TOTAL ITERATIONS
     1 CALLS TO GCG PACKAGE FOR TRANSPORT TIME STEP   996 IN FLOW TIME STEP     1 STRESS PERIOD     2
      4 TOTAL ITERATIONS
     1 CALLS TO GCG PACKAGE FOR TRANSPORT TIME STEP   997 IN FLOW TIME STEP     1 STRESS PERIOD     2
      4 TOTAL ITERATIONS
     1 CALLS TO GCG PACKAGE FOR TRANSPORT TIME STEP   998 IN FLOW TIME STEP     1 STRESS PERIOD     2
      4 TOTAL ITERATIONS
     1 CALLS TO GCG PACKAGE FOR TRANSPORT TIME STEP   999 IN FLOW TIME STEP     1 STRESS PERIOD     2
      4 TOTAL ITERATIONS
  MAXIMUM CONCENTRATION CHANGES FOR EACH ITERATION:
  MAX. CHANGE LAYER,ROW,COL MAX. CHANGE LAYER,ROW,COL MAX. CHANGE LAYER,ROW,COL MAX. CHANGE LAYER,ROW,COL MAX. CHANGE LAYER,ROW,COL
 ------------------------------------------------------------------------------------------------------------------------------------
   0.2326     (  2,  1,120)  0.2271E-02 ( 40,  1,120)  0.1657E-04 ( 11,  1, 15)  0.7749E-06 ( 11,  1, 15)
     1 CALLS TO GCG PACKAGE FOR TRANSPORT TIME STEP  1000 IN FLOW TIME STEP     1 STRESS PERIOD     2
      4 TOTAL ITERATIONS
     1 CALLS TO GCG PACKAGE FOR TRANSPORT TIME STEP  1001 IN FLOW TIME STEP     1 STRESS PERIOD     2
      4 TOTAL ITERATIONS
     1 CALLS TO GCG PACKAGE FOR TRANSPORT TIME STEP  1002 IN FLOW TIME STEP     1 STRESS PERIOD     2
      4 TOTAL ITERATIONS
     1 CALLS TO GCG PACKAGE FOR TRANSPORT TIME STEP  1003 IN FLOW TIME STEP     1 STRESS PERIOD     2
      3 TOTAL ITERATIONS



 >>>>>>>>>>>>>>>>>>>>>>>>>>>>>>>>>>>>>>>>>>>>>>>>>>>>>>>FOR COMPONENT NO. 01<<<<<<<<<<<<<<<<<<<<<<<<<<<<<<<<<<<<<<<<<<<<<<<<<<<<<<<


                                            -------------------------------------------
                                                      TRANSPORT STEP NO. 1003
                                            -------------------------------------------

 TOTAL ELAPSED TIME SINCE BEGINNING OF SIMULATION =   27.88000    D   
 .....................................................................

                     CUMULATIVE MASS BUDGETS AT END OF TRANSPORT STEP 1003, TIME STEP    1, STRESS PERIOD    2
                     -----------------------------------------------------------------------------------------

                                                             IN                           OUT
                                                      ----------------             ----------------
                               CONSTANT CONCENTRATION:    0.000000                    0.000000    
                                        CONSTANT HEAD:    0.000000                  -0.1143441E-01
                                                WELLS:   0.1720626E-01                0.000000    
                               MASS STOR (FLOW MODEL):    0.000000                    0.000000    
                                MASS STORAGE (SOLUTE):   0.8596420E-05              -0.5780851E-02
                            ---------------------------------------------------------------------------
                                              [TOTAL]:   0.1721485E-01 KG           -0.1721526E-01 KG  

                                                          NET (IN - OUT):  -0.4079193E-06
                                                   DISCREPANCY (PERCENT):  -0.2369550E-02
     1 CALLS TO GCG PACKAGE FOR TRANSPORT TIME STEP  1004 IN FLOW TIME STEP     1 STRESS PERIOD     2
      4 TOTAL ITERATIONS
     1 CALLS TO GCG PACKAGE FOR TRANSPORT TIME STEP  1005 IN FLOW TIME STEP     1 STRESS PERIOD     2
      4 TOTAL ITERATIONS
     1 CALLS TO GCG PACKAGE FOR TRANSPORT TIME STEP  1006 IN FLOW TIME STEP     1 STRESS PERIOD     2
      4 TOTAL ITERATIONS
     1 CALLS TO GCG PACKAGE FOR TRANSPORT TIME STEP  1007 IN FLOW TIME STEP     1 STRESS PERIOD     2
      4 TOTAL ITERATIONS
     1 CALLS TO GCG PACKAGE FOR TRANSPORT TIME STEP  1008 IN FLOW TIME STEP     1 STRESS PERIOD     2
      4 TOTAL ITERATIONS
     1 CALLS TO GCG PACKAGE FOR TRANSPORT TIME STEP  1009 IN FLOW TIME STEP     1 STRESS PERIOD     2
      4 TOTAL ITERATIONS
     1 CALLS TO GCG PACKAGE FOR TRANSPORT TIME STEP  1010 IN FLOW TIME STEP     1 STRESS PERIOD     2
      4 TOTAL ITERATIONS
     1 CALLS TO GCG PACKAGE FOR TRANSPORT TIME STEP  1011 IN FLOW TIME STEP     1 STRESS PERIOD     2
      4 TOTAL ITERATIONS
     1 CALLS TO GCG PACKAGE FOR TRANSPORT TIME STEP  1012 IN FLOW TIME STEP     1 STRESS PERIOD     2
      4 TOTAL ITERATIONS
     1 CALLS TO GCG PACKAGE FOR TRANSPORT TIME STEP  1013 IN FLOW TIME STEP     1 STRESS PERIOD     2
      4 TOTAL ITERATIONS
     1 CALLS TO GCG PACKAGE FOR TRANSPORT TIME STEP  1014 IN FLOW TIME STEP     1 STRESS PERIOD     2
      4 TOTAL ITERATIONS
     1 CALLS TO GCG PACKAGE FOR TRANSPORT TIME STEP  1015 IN FLOW TIME STEP     1 STRESS PERIOD     2
      4 TOTAL ITERATIONS
     1 CALLS TO GCG PACKAGE FOR TRANSPORT TIME STEP  1016 IN FLOW TIME STEP     1 STRESS PERIOD     2
      4 TOTAL ITERATIONS
     1 CALLS TO GCG PACKAGE FOR TRANSPORT TIME STEP  1017 IN FLOW TIME STEP     1 STRESS PERIOD     2
      4 TOTAL ITERATIONS
     1 CALLS TO GCG PACKAGE FOR TRANSPORT TIME STEP  1018 IN FLOW TIME STEP     1 STRESS PERIOD     2
      4 TOTAL ITERATIONS
     1 CALLS TO GCG PACKAGE FOR TRANSPORT TIME STEP  1019 IN FLOW TIME STEP     1 STRESS PERIOD     2
      4 TOTAL ITERATIONS
     1 CALLS TO GCG PACKAGE FOR TRANSPORT TIME STEP  1020 IN FLOW TIME STEP     1 STRESS PERIOD     2
      4 TOTAL ITERATIONS
     1 CALLS TO GCG PACKAGE FOR TRANSPORT TIME STEP  1021 IN FLOW TIME STEP     1 STRESS PERIOD     2
      4 TOTAL ITERATIONS
     1 CALLS TO GCG PACKAGE FOR TRANSPORT TIME STEP  1022 IN FLOW TIME STEP     1 STRESS PERIOD     2
      4 TOTAL ITERATIONS
     1 CALLS TO GCG PACKAGE FOR TRANSPORT TIME STEP  1023 IN FLOW TIME STEP     1 STRESS PERIOD     2
      4 TOTAL ITERATIONS
     1 CALLS TO GCG PACKAGE FOR TRANSPORT TIME STEP  1024 IN FLOW TIME STEP     1 STRESS PERIOD     2
      4 TOTAL ITERATIONS
     1 CALLS TO GCG PACKAGE FOR TRANSPORT TIME STEP  1025 IN FLOW TIME STEP     1 STRESS PERIOD     2
      4 TOTAL ITERATIONS
     1 CALLS TO GCG PACKAGE FOR TRANSPORT TIME STEP  1026 IN FLOW TIME STEP     1 STRESS PERIOD     2
      4 TOTAL ITERATIONS
     1 CALLS TO GCG PACKAGE FOR TRANSPORT TIME STEP  1027 IN FLOW TIME STEP     1 STRESS PERIOD     2
      4 TOTAL ITERATIONS
     1 CALLS TO GCG PACKAGE FOR TRANSPORT TIME STEP  1028 IN FLOW TIME STEP     1 STRESS PERIOD     2
      4 TOTAL ITERATIONS
     1 CALLS TO GCG PACKAGE FOR TRANSPORT TIME STEP  1029 IN FLOW TIME STEP     1 STRESS PERIOD     2
      4 TOTAL ITERATIONS
     1 CALLS TO GCG PACKAGE FOR TRANSPORT TIME STEP  1030 IN FLOW TIME STEP     1 STRESS PERIOD     2
      4 TOTAL ITERATIONS
     1 CALLS TO GCG PACKAGE FOR TRANSPORT TIME STEP  1031 IN FLOW TIME STEP     1 STRESS PERIOD     2
      4 TOTAL ITERATIONS
     1 CALLS TO GCG PACKAGE FOR TRANSPORT TIME STEP  1032 IN FLOW TIME STEP     1 STRESS PERIOD     2
      4 TOTAL ITERATIONS
     1 CALLS TO GCG PACKAGE FOR TRANSPORT TIME STEP  1033 IN FLOW TIME STEP     1 STRESS PERIOD     2
      4 TOTAL ITERATIONS
     1 CALLS TO GCG PACKAGE FOR TRANSPORT TIME STEP  1034 IN FLOW TIME STEP     1 STRESS PERIOD     2
      4 TOTAL ITERATIONS
     1 CALLS TO GCG PACKAGE FOR TRANSPORT TIME STEP  1035 IN FLOW TIME STEP     1 STRESS PERIOD     2
      4 TOTAL ITERATIONS
     1 CALLS TO GCG PACKAGE FOR TRANSPORT TIME STEP  1036 IN FLOW TIME STEP     1 STRESS PERIOD     2
      4 TOTAL ITERATIONS
     1 CALLS TO GCG PACKAGE FOR TRANSPORT TIME STEP  1037 IN FLOW TIME STEP     1 STRESS PERIOD     2
      4 TOTAL ITERATIONS
     1 CALLS TO GCG PACKAGE FOR TRANSPORT TIME STEP  1038 IN FLOW TIME STEP     1 STRESS PERIOD     2
      4 TOTAL ITERATIONS
     1 CALLS TO GCG PACKAGE FOR TRANSPORT TIME STEP  1039 IN FLOW TIME STEP     1 STRESS PERIOD     2
      4 TOTAL ITERATIONS
     1 CALLS TO GCG PACKAGE FOR TRANSPORT TIME STEP  1040 IN FLOW TIME STEP     1 STRESS PERIOD     2
      4 TOTAL ITERATIONS
     1 CALLS TO GCG PACKAGE FOR TRANSPORT TIME STEP  1041 IN FLOW TIME STEP     1 STRESS PERIOD     2
      4 TOTAL ITERATIONS
     1 CALLS TO GCG PACKAGE FOR TRANSPORT TIME STEP  1042 IN FLOW TIME STEP     1 STRESS PERIOD     2
      4 TOTAL ITERATIONS
     1 CALLS TO GCG PACKAGE FOR TRANSPORT TIME STEP  1043 IN FLOW TIME STEP     1 STRESS PERIOD     2
      4 TOTAL ITERATIONS
     1 CALLS TO GCG PACKAGE FOR TRANSPORT TIME STEP  1044 IN FLOW TIME STEP     1 STRESS PERIOD     2
      4 TOTAL ITERATIONS
     1 CALLS TO GCG PACKAGE FOR TRANSPORT TIME STEP  1045 IN FLOW TIME STEP     1 STRESS PERIOD     2
      4 TOTAL ITERATIONS
     1 CALLS TO GCG PACKAGE FOR TRANSPORT TIME STEP  1046 IN FLOW TIME STEP     1 STRESS PERIOD     2
      4 TOTAL ITERATIONS
     1 CALLS TO GCG PACKAGE FOR TRANSPORT TIME STEP  1047 IN FLOW TIME STEP     1 STRESS PERIOD     2
      4 TOTAL ITERATIONS
     1 CALLS TO GCG PACKAGE FOR TRANSPORT TIME STEP  1048 IN FLOW TIME STEP     1 STRESS PERIOD     2
      4 TOTAL ITERATIONS
     1 CALLS TO GCG PACKAGE FOR TRANSPORT TIME STEP  1049 IN FLOW TIME STEP     1 STRESS PERIOD     2
      3 TOTAL ITERATIONS



 >>>>>>>>>>>>>>>>>>>>>>>>>>>>>>>>>>>>>>>>>>>>>>>>>>>>>>>FOR COMPONENT NO. 01<<<<<<<<<<<<<<<<<<<<<<<<<<<<<<<<<<<<<<<<<<<<<<<<<<<<<<<


                                            -------------------------------------------
                                                      TRANSPORT STEP NO. 1049
                                            -------------------------------------------

 TOTAL ELAPSED TIME SINCE BEGINNING OF SIMULATION =   28.70000    D   
 .....................................................................

                     CUMULATIVE MASS BUDGETS AT END OF TRANSPORT STEP 1049, TIME STEP    1, STRESS PERIOD    2
                     -----------------------------------------------------------------------------------------

                                                             IN                           OUT
                                                      ----------------             ----------------
                               CONSTANT CONCENTRATION:    0.000000                    0.000000    
                                        CONSTANT HEAD:    0.000000                  -0.1192263E-01
                                                WELLS:   0.1771230E-01                0.000000    
                               MASS STOR (FLOW MODEL):    0.000000                    0.000000    
                                MASS STORAGE (SOLUTE):   0.8630701E-05              -0.5798771E-02
                            ---------------------------------------------------------------------------
                                              [TOTAL]:   0.1772093E-01 KG           -0.1772140E-01 KG  

                                                          NET (IN - OUT):  -0.4619360E-06
                                                   DISCREPANCY (PERCENT):  -0.2606691E-02
     1 CALLS TO GCG PACKAGE FOR TRANSPORT TIME STEP  1050 IN FLOW TIME STEP     1 STRESS PERIOD     2
      4 TOTAL ITERATIONS
     1 CALLS TO GCG PACKAGE FOR TRANSPORT TIME STEP  1051 IN FLOW TIME STEP     1 STRESS PERIOD     2
      4 TOTAL ITERATIONS
     1 CALLS TO GCG PACKAGE FOR TRANSPORT TIME STEP  1052 IN FLOW TIME STEP     1 STRESS PERIOD     2
      4 TOTAL ITERATIONS
     1 CALLS TO GCG PACKAGE FOR TRANSPORT TIME STEP  1053 IN FLOW TIME STEP     1 STRESS PERIOD     2
      4 TOTAL ITERATIONS
     1 CALLS TO GCG PACKAGE FOR TRANSPORT TIME STEP  1054 IN FLOW TIME STEP     1 STRESS PERIOD     2
      4 TOTAL ITERATIONS
     1 CALLS TO GCG PACKAGE FOR TRANSPORT TIME STEP  1055 IN FLOW TIME STEP     1 STRESS PERIOD     2
      4 TOTAL ITERATIONS
     1 CALLS TO GCG PACKAGE FOR TRANSPORT TIME STEP  1056 IN FLOW TIME STEP     1 STRESS PERIOD     2
      4 TOTAL ITERATIONS
     1 CALLS TO GCG PACKAGE FOR TRANSPORT TIME STEP  1057 IN FLOW TIME STEP     1 STRESS PERIOD     2
      4 TOTAL ITERATIONS
     1 CALLS TO GCG PACKAGE FOR TRANSPORT TIME STEP  1058 IN FLOW TIME STEP     1 STRESS PERIOD     2
      4 TOTAL ITERATIONS
     1 CALLS TO GCG PACKAGE FOR TRANSPORT TIME STEP  1059 IN FLOW TIME STEP     1 STRESS PERIOD     2
      4 TOTAL ITERATIONS
     1 CALLS TO GCG PACKAGE FOR TRANSPORT TIME STEP  1060 IN FLOW TIME STEP     1 STRESS PERIOD     2
      4 TOTAL ITERATIONS
     1 CALLS TO GCG PACKAGE FOR TRANSPORT TIME STEP  1061 IN FLOW TIME STEP     1 STRESS PERIOD     2
      4 TOTAL ITERATIONS
     1 CALLS TO GCG PACKAGE FOR TRANSPORT TIME STEP  1062 IN FLOW TIME STEP     1 STRESS PERIOD     2
      4 TOTAL ITERATIONS
     1 CALLS TO GCG PACKAGE FOR TRANSPORT TIME STEP  1063 IN FLOW TIME STEP     1 STRESS PERIOD     2
      4 TOTAL ITERATIONS
     1 CALLS TO GCG PACKAGE FOR TRANSPORT TIME STEP  1064 IN FLOW TIME STEP     1 STRESS PERIOD     2
      4 TOTAL ITERATIONS
     1 CALLS TO GCG PACKAGE FOR TRANSPORT TIME STEP  1065 IN FLOW TIME STEP     1 STRESS PERIOD     2
      4 TOTAL ITERATIONS
     1 CALLS TO GCG PACKAGE FOR TRANSPORT TIME STEP  1066 IN FLOW TIME STEP     1 STRESS PERIOD     2
      4 TOTAL ITERATIONS
     1 CALLS TO GCG PACKAGE FOR TRANSPORT TIME STEP  1067 IN FLOW TIME STEP     1 STRESS PERIOD     2
      4 TOTAL ITERATIONS
     1 CALLS TO GCG PACKAGE FOR TRANSPORT TIME STEP  1068 IN FLOW TIME STEP     1 STRESS PERIOD     2
      4 TOTAL ITERATIONS
     1 CALLS TO GCG PACKAGE FOR TRANSPORT TIME STEP  1069 IN FLOW TIME STEP     1 STRESS PERIOD     2
      4 TOTAL ITERATIONS
     1 CALLS TO GCG PACKAGE FOR TRANSPORT TIME STEP  1070 IN FLOW TIME STEP     1 STRESS PERIOD     2
      4 TOTAL ITERATIONS
     1 CALLS TO GCG PACKAGE FOR TRANSPORT TIME STEP  1071 IN FLOW TIME STEP     1 STRESS PERIOD     2
      4 TOTAL ITERATIONS
     1 CALLS TO GCG PACKAGE FOR TRANSPORT TIME STEP  1072 IN FLOW TIME STEP     1 STRESS PERIOD     2
      4 TOTAL ITERATIONS
     1 CALLS TO GCG PACKAGE FOR TRANSPORT TIME STEP  1073 IN FLOW TIME STEP     1 STRESS PERIOD     2
      4 TOTAL ITERATIONS
     1 CALLS TO GCG PACKAGE FOR TRANSPORT TIME STEP  1074 IN FLOW TIME STEP     1 STRESS PERIOD     2
      4 TOTAL ITERATIONS
     1 CALLS TO GCG PACKAGE FOR TRANSPORT TIME STEP  1075 IN FLOW TIME STEP     1 STRESS PERIOD     2
      4 TOTAL ITERATIONS
     1 CALLS TO GCG PACKAGE FOR TRANSPORT TIME STEP  1076 IN FLOW TIME STEP     1 STRESS PERIOD     2
      4 TOTAL ITERATIONS
     1 CALLS TO GCG PACKAGE FOR TRANSPORT TIME STEP  1077 IN FLOW TIME STEP     1 STRESS PERIOD     2
      4 TOTAL ITERATIONS
     1 CALLS TO GCG PACKAGE FOR TRANSPORT TIME STEP  1078 IN FLOW TIME STEP     1 STRESS PERIOD     2
      4 TOTAL ITERATIONS
     1 CALLS TO GCG PACKAGE FOR TRANSPORT TIME STEP  1079 IN FLOW TIME STEP     1 STRESS PERIOD     2
      4 TOTAL ITERATIONS
     1 CALLS TO GCG PACKAGE FOR TRANSPORT TIME STEP  1080 IN FLOW TIME STEP     1 STRESS PERIOD     2
      4 TOTAL ITERATIONS
     1 CALLS TO GCG PACKAGE FOR TRANSPORT TIME STEP  1081 IN FLOW TIME STEP     1 STRESS PERIOD     2
      4 TOTAL ITERATIONS
     1 CALLS TO GCG PACKAGE FOR TRANSPORT TIME STEP  1082 IN FLOW TIME STEP     1 STRESS PERIOD     2
      4 TOTAL ITERATIONS
     1 CALLS TO GCG PACKAGE FOR TRANSPORT TIME STEP  1083 IN FLOW TIME STEP     1 STRESS PERIOD     2
      4 TOTAL ITERATIONS
     1 CALLS TO GCG PACKAGE FOR TRANSPORT TIME STEP  1084 IN FLOW TIME STEP     1 STRESS PERIOD     2
      4 TOTAL ITERATIONS
     1 CALLS TO GCG PACKAGE FOR TRANSPORT TIME STEP  1085 IN FLOW TIME STEP     1 STRESS PERIOD     2
      4 TOTAL ITERATIONS
     1 CALLS TO GCG PACKAGE FOR TRANSPORT TIME STEP  1086 IN FLOW TIME STEP     1 STRESS PERIOD     2
      4 TOTAL ITERATIONS
     1 CALLS TO GCG PACKAGE FOR TRANSPORT TIME STEP  1087 IN FLOW TIME STEP     1 STRESS PERIOD     2
      4 TOTAL ITERATIONS
     1 CALLS TO GCG PACKAGE FOR TRANSPORT TIME STEP  1088 IN FLOW TIME STEP     1 STRESS PERIOD     2
      4 TOTAL ITERATIONS
     1 CALLS TO GCG PACKAGE FOR TRANSPORT TIME STEP  1089 IN FLOW TIME STEP     1 STRESS PERIOD     2
      4 TOTAL ITERATIONS
     1 CALLS TO GCG PACKAGE FOR TRANSPORT TIME STEP  1090 IN FLOW TIME STEP     1 STRESS PERIOD     2
      4 TOTAL ITERATIONS
     1 CALLS TO GCG PACKAGE FOR TRANSPORT TIME STEP  1091 IN FLOW TIME STEP     1 STRESS PERIOD     2
      4 TOTAL ITERATIONS
     1 CALLS TO GCG PACKAGE FOR TRANSPORT TIME STEP  1092 IN FLOW TIME STEP     1 STRESS PERIOD     2
      4 TOTAL ITERATIONS
     1 CALLS TO GCG PACKAGE FOR TRANSPORT TIME STEP  1093 IN FLOW TIME STEP     1 STRESS PERIOD     2
      4 TOTAL ITERATIONS
     1 CALLS TO GCG PACKAGE FOR TRANSPORT TIME STEP  1094 IN FLOW TIME STEP     1 STRESS PERIOD     2
      4 TOTAL ITERATIONS
     1 CALLS TO GCG PACKAGE FOR TRANSPORT TIME STEP  1095 IN FLOW TIME STEP     1 STRESS PERIOD     2
      3 TOTAL ITERATIONS



 >>>>>>>>>>>>>>>>>>>>>>>>>>>>>>>>>>>>>>>>>>>>>>>>>>>>>>>FOR COMPONENT NO. 01<<<<<<<<<<<<<<<<<<<<<<<<<<<<<<<<<<<<<<<<<<<<<<<<<<<<<<<


                                            -------------------------------------------
                                                      TRANSPORT STEP NO. 1095
                                            -------------------------------------------

 TOTAL ELAPSED TIME SINCE BEGINNING OF SIMULATION =   29.52000    D   
 .....................................................................

                     CUMULATIVE MASS BUDGETS AT END OF TRANSPORT STEP 1095, TIME STEP    1, STRESS PERIOD    2
                     -----------------------------------------------------------------------------------------

                                                             IN                           OUT
                                                      ----------------             ----------------
                               CONSTANT CONCENTRATION:    0.000000                    0.000000    
                                        CONSTANT HEAD:    0.000000                  -0.1241193E-01
                                                WELLS:   0.1821835E-01                0.000000    
                               MASS STOR (FLOW MODEL):    0.000000                    0.000000    
                                MASS STORAGE (SOLUTE):   0.8665345E-05              -0.5815605E-02
                            ---------------------------------------------------------------------------
                                              [TOTAL]:   0.1822701E-01 KG           -0.1822753E-01 KG  

                                                          NET (IN - OUT):  -0.5196780E-06
                                                   DISCREPANCY (PERCENT):  -0.2851101E-02
     1 CALLS TO GCG PACKAGE FOR TRANSPORT TIME STEP  1096 IN FLOW TIME STEP     1 STRESS PERIOD     2
      4 TOTAL ITERATIONS
     1 CALLS TO GCG PACKAGE FOR TRANSPORT TIME STEP  1097 IN FLOW TIME STEP     1 STRESS PERIOD     2
      4 TOTAL ITERATIONS
     1 CALLS TO GCG PACKAGE FOR TRANSPORT TIME STEP  1098 IN FLOW TIME STEP     1 STRESS PERIOD     2
      4 TOTAL ITERATIONS
     1 CALLS TO GCG PACKAGE FOR TRANSPORT TIME STEP  1099 IN FLOW TIME STEP     1 STRESS PERIOD     2
      4 TOTAL ITERATIONS
     1 CALLS TO GCG PACKAGE FOR TRANSPORT TIME STEP  1100 IN FLOW TIME STEP     1 STRESS PERIOD     2
      4 TOTAL ITERATIONS
     1 CALLS TO GCG PACKAGE FOR TRANSPORT TIME STEP  1101 IN FLOW TIME STEP     1 STRESS PERIOD     2
      4 TOTAL ITERATIONS
     1 CALLS TO GCG PACKAGE FOR TRANSPORT TIME STEP  1102 IN FLOW TIME STEP     1 STRESS PERIOD     2
      4 TOTAL ITERATIONS
     1 CALLS TO GCG PACKAGE FOR TRANSPORT TIME STEP  1103 IN FLOW TIME STEP     1 STRESS PERIOD     2
      4 TOTAL ITERATIONS
     1 CALLS TO GCG PACKAGE FOR TRANSPORT TIME STEP  1104 IN FLOW TIME STEP     1 STRESS PERIOD     2
      4 TOTAL ITERATIONS
     1 CALLS TO GCG PACKAGE FOR TRANSPORT TIME STEP  1105 IN FLOW TIME STEP     1 STRESS PERIOD     2
      4 TOTAL ITERATIONS
     1 CALLS TO GCG PACKAGE FOR TRANSPORT TIME STEP  1106 IN FLOW TIME STEP     1 STRESS PERIOD     2
      4 TOTAL ITERATIONS
     1 CALLS TO GCG PACKAGE FOR TRANSPORT TIME STEP  1107 IN FLOW TIME STEP     1 STRESS PERIOD     2
      4 TOTAL ITERATIONS
     1 CALLS TO GCG PACKAGE FOR TRANSPORT TIME STEP  1108 IN FLOW TIME STEP     1 STRESS PERIOD     2
      4 TOTAL ITERATIONS
     1 CALLS TO GCG PACKAGE FOR TRANSPORT TIME STEP  1109 IN FLOW TIME STEP     1 STRESS PERIOD     2
      4 TOTAL ITERATIONS
     1 CALLS TO GCG PACKAGE FOR TRANSPORT TIME STEP  1110 IN FLOW TIME STEP     1 STRESS PERIOD     2
      4 TOTAL ITERATIONS
     1 CALLS TO GCG PACKAGE FOR TRANSPORT TIME STEP  1111 IN FLOW TIME STEP     1 STRESS PERIOD     2
      4 TOTAL ITERATIONS
     1 CALLS TO GCG PACKAGE FOR TRANSPORT TIME STEP  1112 IN FLOW TIME STEP     1 STRESS PERIOD     2
      4 TOTAL ITERATIONS
     1 CALLS TO GCG PACKAGE FOR TRANSPORT TIME STEP  1113 IN FLOW TIME STEP     1 STRESS PERIOD     2
      4 TOTAL ITERATIONS
     1 CALLS TO GCG PACKAGE FOR TRANSPORT TIME STEP  1114 IN FLOW TIME STEP     1 STRESS PERIOD     2
      4 TOTAL ITERATIONS
     1 CALLS TO GCG PACKAGE FOR TRANSPORT TIME STEP  1115 IN FLOW TIME STEP     1 STRESS PERIOD     2
      4 TOTAL ITERATIONS
     1 CALLS TO GCG PACKAGE FOR TRANSPORT TIME STEP  1116 IN FLOW TIME STEP     1 STRESS PERIOD     2
      4 TOTAL ITERATIONS
     1 CALLS TO GCG PACKAGE FOR TRANSPORT TIME STEP  1117 IN FLOW TIME STEP     1 STRESS PERIOD     2
      4 TOTAL ITERATIONS
     1 CALLS TO GCG PACKAGE FOR TRANSPORT TIME STEP  1118 IN FLOW TIME STEP     1 STRESS PERIOD     2
      4 TOTAL ITERATIONS
     1 CALLS TO GCG PACKAGE FOR TRANSPORT TIME STEP  1119 IN FLOW TIME STEP     1 STRESS PERIOD     2
      4 TOTAL ITERATIONS
     1 CALLS TO GCG PACKAGE FOR TRANSPORT TIME STEP  1120 IN FLOW TIME STEP     1 STRESS PERIOD     2
      4 TOTAL ITERATIONS
     1 CALLS TO GCG PACKAGE FOR TRANSPORT TIME STEP  1121 IN FLOW TIME STEP     1 STRESS PERIOD     2
      4 TOTAL ITERATIONS
     1 CALLS TO GCG PACKAGE FOR TRANSPORT TIME STEP  1122 IN FLOW TIME STEP     1 STRESS PERIOD     2
      4 TOTAL ITERATIONS
     1 CALLS TO GCG PACKAGE FOR TRANSPORT TIME STEP  1123 IN FLOW TIME STEP     1 STRESS PERIOD     2
      4 TOTAL ITERATIONS
     1 CALLS TO GCG PACKAGE FOR TRANSPORT TIME STEP  1124 IN FLOW TIME STEP     1 STRESS PERIOD     2
      4 TOTAL ITERATIONS
     1 CALLS TO GCG PACKAGE FOR TRANSPORT TIME STEP  1125 IN FLOW TIME STEP     1 STRESS PERIOD     2
      4 TOTAL ITERATIONS
     1 CALLS TO GCG PACKAGE FOR TRANSPORT TIME STEP  1126 IN FLOW TIME STEP     1 STRESS PERIOD     2
      4 TOTAL ITERATIONS
     1 CALLS TO GCG PACKAGE FOR TRANSPORT TIME STEP  1127 IN FLOW TIME STEP     1 STRESS PERIOD     2
      4 TOTAL ITERATIONS
     1 CALLS TO GCG PACKAGE FOR TRANSPORT TIME STEP  1128 IN FLOW TIME STEP     1 STRESS PERIOD     2
      4 TOTAL ITERATIONS
     1 CALLS TO GCG PACKAGE FOR TRANSPORT TIME STEP  1129 IN FLOW TIME STEP     1 STRESS PERIOD     2
      4 TOTAL ITERATIONS
     1 CALLS TO GCG PACKAGE FOR TRANSPORT TIME STEP  1130 IN FLOW TIME STEP     1 STRESS PERIOD     2
      4 TOTAL ITERATIONS
     1 CALLS TO GCG PACKAGE FOR TRANSPORT TIME STEP  1131 IN FLOW TIME STEP     1 STRESS PERIOD     2
      4 TOTAL ITERATIONS
     1 CALLS TO GCG PACKAGE FOR TRANSPORT TIME STEP  1132 IN FLOW TIME STEP     1 STRESS PERIOD     2
      4 TOTAL ITERATIONS
     1 CALLS TO GCG PACKAGE FOR TRANSPORT TIME STEP  1133 IN FLOW TIME STEP     1 STRESS PERIOD     2
      4 TOTAL ITERATIONS
     1 CALLS TO GCG PACKAGE FOR TRANSPORT TIME STEP  1134 IN FLOW TIME STEP     1 STRESS PERIOD     2
      4 TOTAL ITERATIONS
     1 CALLS TO GCG PACKAGE FOR TRANSPORT TIME STEP  1135 IN FLOW TIME STEP     1 STRESS PERIOD     2
      4 TOTAL ITERATIONS
     1 CALLS TO GCG PACKAGE FOR TRANSPORT TIME STEP  1136 IN FLOW TIME STEP     1 STRESS PERIOD     2
      4 TOTAL ITERATIONS
     1 CALLS TO GCG PACKAGE FOR TRANSPORT TIME STEP  1137 IN FLOW TIME STEP     1 STRESS PERIOD     2
      4 TOTAL ITERATIONS
     1 CALLS TO GCG PACKAGE FOR TRANSPORT TIME STEP  1138 IN FLOW TIME STEP     1 STRESS PERIOD     2
      4 TOTAL ITERATIONS
     1 CALLS TO GCG PACKAGE FOR TRANSPORT TIME STEP  1139 IN FLOW TIME STEP     1 STRESS PERIOD     2
      4 TOTAL ITERATIONS
     1 CALLS TO GCG PACKAGE FOR TRANSPORT TIME STEP  1140 IN FLOW TIME STEP     1 STRESS PERIOD     2
      4 TOTAL ITERATIONS
     1 CALLS TO GCG PACKAGE FOR TRANSPORT TIME STEP  1141 IN FLOW TIME STEP     1 STRESS PERIOD     2
      3 TOTAL ITERATIONS



 >>>>>>>>>>>>>>>>>>>>>>>>>>>>>>>>>>>>>>>>>>>>>>>>>>>>>>>FOR COMPONENT NO. 01<<<<<<<<<<<<<<<<<<<<<<<<<<<<<<<<<<<<<<<<<<<<<<<<<<<<<<<


                                            -------------------------------------------
                                                      TRANSPORT STEP NO. 1141
                                            -------------------------------------------

 TOTAL ELAPSED TIME SINCE BEGINNING OF SIMULATION =   30.34000    D   
 .....................................................................

                     CUMULATIVE MASS BUDGETS AT END OF TRANSPORT STEP 1141, TIME STEP    1, STRESS PERIOD    2
                     -----------------------------------------------------------------------------------------

                                                             IN                           OUT
                                                      ----------------             ----------------
                               CONSTANT CONCENTRATION:    0.000000                    0.000000    
                                        CONSTANT HEAD:    0.000000                  -0.1290225E-01
                                                WELLS:   0.1872439E-01                0.000000    
                               MASS STOR (FLOW MODEL):    0.000000                    0.000000    
                                MASS STORAGE (SOLUTE):   0.8700182E-05              -0.5831418E-02
                            ---------------------------------------------------------------------------
                                              [TOTAL]:   0.1873309E-01 KG           -0.1873367E-01 KG  

                                                          NET (IN - OUT):  -0.5755574E-06
                                                   DISCREPANCY (PERCENT):  -0.3072362E-02
     1 CALLS TO GCG PACKAGE FOR TRANSPORT TIME STEP  1142 IN FLOW TIME STEP     1 STRESS PERIOD     2
      4 TOTAL ITERATIONS
     1 CALLS TO GCG PACKAGE FOR TRANSPORT TIME STEP  1143 IN FLOW TIME STEP     1 STRESS PERIOD     2
      4 TOTAL ITERATIONS
     1 CALLS TO GCG PACKAGE FOR TRANSPORT TIME STEP  1144 IN FLOW TIME STEP     1 STRESS PERIOD     2
      4 TOTAL ITERATIONS
     1 CALLS TO GCG PACKAGE FOR TRANSPORT TIME STEP  1145 IN FLOW TIME STEP     1 STRESS PERIOD     2
      4 TOTAL ITERATIONS
     1 CALLS TO GCG PACKAGE FOR TRANSPORT TIME STEP  1146 IN FLOW TIME STEP     1 STRESS PERIOD     2
      4 TOTAL ITERATIONS
     1 CALLS TO GCG PACKAGE FOR TRANSPORT TIME STEP  1147 IN FLOW TIME STEP     1 STRESS PERIOD     2
      4 TOTAL ITERATIONS
     1 CALLS TO GCG PACKAGE FOR TRANSPORT TIME STEP  1148 IN FLOW TIME STEP     1 STRESS PERIOD     2
      4 TOTAL ITERATIONS
     1 CALLS TO GCG PACKAGE FOR TRANSPORT TIME STEP  1149 IN FLOW TIME STEP     1 STRESS PERIOD     2
      4 TOTAL ITERATIONS
     1 CALLS TO GCG PACKAGE FOR TRANSPORT TIME STEP  1150 IN FLOW TIME STEP     1 STRESS PERIOD     2
      4 TOTAL ITERATIONS
     1 CALLS TO GCG PACKAGE FOR TRANSPORT TIME STEP  1151 IN FLOW TIME STEP     1 STRESS PERIOD     2
      4 TOTAL ITERATIONS
     1 CALLS TO GCG PACKAGE FOR TRANSPORT TIME STEP  1152 IN FLOW TIME STEP     1 STRESS PERIOD     2
      4 TOTAL ITERATIONS
     1 CALLS TO GCG PACKAGE FOR TRANSPORT TIME STEP  1153 IN FLOW TIME STEP     1 STRESS PERIOD     2
      4 TOTAL ITERATIONS
     1 CALLS TO GCG PACKAGE FOR TRANSPORT TIME STEP  1154 IN FLOW TIME STEP     1 STRESS PERIOD     2
      4 TOTAL ITERATIONS
     1 CALLS TO GCG PACKAGE FOR TRANSPORT TIME STEP  1155 IN FLOW TIME STEP     1 STRESS PERIOD     2
      4 TOTAL ITERATIONS
     1 CALLS TO GCG PACKAGE FOR TRANSPORT TIME STEP  1156 IN FLOW TIME STEP     1 STRESS PERIOD     2
      4 TOTAL ITERATIONS
     1 CALLS TO GCG PACKAGE FOR TRANSPORT TIME STEP  1157 IN FLOW TIME STEP     1 STRESS PERIOD     2
      4 TOTAL ITERATIONS
     1 CALLS TO GCG PACKAGE FOR TRANSPORT TIME STEP  1158 IN FLOW TIME STEP     1 STRESS PERIOD     2
      4 TOTAL ITERATIONS
     1 CALLS TO GCG PACKAGE FOR TRANSPORT TIME STEP  1159 IN FLOW TIME STEP     1 STRESS PERIOD     2
      4 TOTAL ITERATIONS
     1 CALLS TO GCG PACKAGE FOR TRANSPORT TIME STEP  1160 IN FLOW TIME STEP     1 STRESS PERIOD     2
      4 TOTAL ITERATIONS
     1 CALLS TO GCG PACKAGE FOR TRANSPORT TIME STEP  1161 IN FLOW TIME STEP     1 STRESS PERIOD     2
      4 TOTAL ITERATIONS
     1 CALLS TO GCG PACKAGE FOR TRANSPORT TIME STEP  1162 IN FLOW TIME STEP     1 STRESS PERIOD     2
      4 TOTAL ITERATIONS
     1 CALLS TO GCG PACKAGE FOR TRANSPORT TIME STEP  1163 IN FLOW TIME STEP     1 STRESS PERIOD     2
      4 TOTAL ITERATIONS
     1 CALLS TO GCG PACKAGE FOR TRANSPORT TIME STEP  1164 IN FLOW TIME STEP     1 STRESS PERIOD     2
      4 TOTAL ITERATIONS
     1 CALLS TO GCG PACKAGE FOR TRANSPORT TIME STEP  1165 IN FLOW TIME STEP     1 STRESS PERIOD     2
      4 TOTAL ITERATIONS
     1 CALLS TO GCG PACKAGE FOR TRANSPORT TIME STEP  1166 IN FLOW TIME STEP     1 STRESS PERIOD     2
      4 TOTAL ITERATIONS
     1 CALLS TO GCG PACKAGE FOR TRANSPORT TIME STEP  1167 IN FLOW TIME STEP     1 STRESS PERIOD     2
      4 TOTAL ITERATIONS
     1 CALLS TO GCG PACKAGE FOR TRANSPORT TIME STEP  1168 IN FLOW TIME STEP     1 STRESS PERIOD     2
      4 TOTAL ITERATIONS
     1 CALLS TO GCG PACKAGE FOR TRANSPORT TIME STEP  1169 IN FLOW TIME STEP     1 STRESS PERIOD     2
      4 TOTAL ITERATIONS
     1 CALLS TO GCG PACKAGE FOR TRANSPORT TIME STEP  1170 IN FLOW TIME STEP     1 STRESS PERIOD     2
      4 TOTAL ITERATIONS
     1 CALLS TO GCG PACKAGE FOR TRANSPORT TIME STEP  1171 IN FLOW TIME STEP     1 STRESS PERIOD     2
      4 TOTAL ITERATIONS
     1 CALLS TO GCG PACKAGE FOR TRANSPORT TIME STEP  1172 IN FLOW TIME STEP     1 STRESS PERIOD     2
      4 TOTAL ITERATIONS
     1 CALLS TO GCG PACKAGE FOR TRANSPORT TIME STEP  1173 IN FLOW TIME STEP     1 STRESS PERIOD     2
      4 TOTAL ITERATIONS
     1 CALLS TO GCG PACKAGE FOR TRANSPORT TIME STEP  1174 IN FLOW TIME STEP     1 STRESS PERIOD     2
      4 TOTAL ITERATIONS
     1 CALLS TO GCG PACKAGE FOR TRANSPORT TIME STEP  1175 IN FLOW TIME STEP     1 STRESS PERIOD     2
      4 TOTAL ITERATIONS
     1 CALLS TO GCG PACKAGE FOR TRANSPORT TIME STEP  1176 IN FLOW TIME STEP     1 STRESS PERIOD     2
      4 TOTAL ITERATIONS
     1 CALLS TO GCG PACKAGE FOR TRANSPORT TIME STEP  1177 IN FLOW TIME STEP     1 STRESS PERIOD     2
      4 TOTAL ITERATIONS
     1 CALLS TO GCG PACKAGE FOR TRANSPORT TIME STEP  1178 IN FLOW TIME STEP     1 STRESS PERIOD     2
      4 TOTAL ITERATIONS
     1 CALLS TO GCG PACKAGE FOR TRANSPORT TIME STEP  1179 IN FLOW TIME STEP     1 STRESS PERIOD     2
      4 TOTAL ITERATIONS
     1 CALLS TO GCG PACKAGE FOR TRANSPORT TIME STEP  1180 IN FLOW TIME STEP     1 STRESS PERIOD     2
      4 TOTAL ITERATIONS
     1 CALLS TO GCG PACKAGE FOR TRANSPORT TIME STEP  1181 IN FLOW TIME STEP     1 STRESS PERIOD     2
      4 TOTAL ITERATIONS
     1 CALLS TO GCG PACKAGE FOR TRANSPORT TIME STEP  1182 IN FLOW TIME STEP     1 STRESS PERIOD     2
      4 TOTAL ITERATIONS
     1 CALLS TO GCG PACKAGE FOR TRANSPORT TIME STEP  1183 IN FLOW TIME STEP     1 STRESS PERIOD     2
      4 TOTAL ITERATIONS
     1 CALLS TO GCG PACKAGE FOR TRANSPORT TIME STEP  1184 IN FLOW TIME STEP     1 STRESS PERIOD     2
      4 TOTAL ITERATIONS
     1 CALLS TO GCG PACKAGE FOR TRANSPORT TIME STEP  1185 IN FLOW TIME STEP     1 STRESS PERIOD     2
      4 TOTAL ITERATIONS
     1 CALLS TO GCG PACKAGE FOR TRANSPORT TIME STEP  1186 IN FLOW TIME STEP     1 STRESS PERIOD     2
      4 TOTAL ITERATIONS
     1 CALLS TO GCG PACKAGE FOR TRANSPORT TIME STEP  1187 IN FLOW TIME STEP     1 STRESS PERIOD     2
      3 TOTAL ITERATIONS



 >>>>>>>>>>>>>>>>>>>>>>>>>>>>>>>>>>>>>>>>>>>>>>>>>>>>>>>FOR COMPONENT NO. 01<<<<<<<<<<<<<<<<<<<<<<<<<<<<<<<<<<<<<<<<<<<<<<<<<<<<<<<


                                            -------------------------------------------
                                                      TRANSPORT STEP NO. 1187
                                            -------------------------------------------

 TOTAL ELAPSED TIME SINCE BEGINNING OF SIMULATION =   31.16000    D   
 .....................................................................

                     CUMULATIVE MASS BUDGETS AT END OF TRANSPORT STEP 1187, TIME STEP    1, STRESS PERIOD    2
                     -----------------------------------------------------------------------------------------

                                                             IN                           OUT
                                                      ----------------             ----------------
                               CONSTANT CONCENTRATION:    0.000000                    0.000000    
                                        CONSTANT HEAD:    0.000000                  -0.1339354E-01
                                                WELLS:   0.1923044E-01                0.000000    
                               MASS STOR (FLOW MODEL):    0.000000                    0.000000    
                                MASS STORAGE (SOLUTE):   0.8735095E-05              -0.5846267E-02
                            ---------------------------------------------------------------------------
                                              [TOTAL]:   0.1923917E-01 KG           -0.1923980E-01 KG  

                                                          NET (IN - OUT):  -0.6277114E-06
                                                   DISCREPANCY (PERCENT):  -0.3262620E-02
     1 CALLS TO GCG PACKAGE FOR TRANSPORT TIME STEP  1188 IN FLOW TIME STEP     1 STRESS PERIOD     2
      4 TOTAL ITERATIONS
     1 CALLS TO GCG PACKAGE FOR TRANSPORT TIME STEP  1189 IN FLOW TIME STEP     1 STRESS PERIOD     2
      4 TOTAL ITERATIONS
     1 CALLS TO GCG PACKAGE FOR TRANSPORT TIME STEP  1190 IN FLOW TIME STEP     1 STRESS PERIOD     2
      4 TOTAL ITERATIONS
     1 CALLS TO GCG PACKAGE FOR TRANSPORT TIME STEP  1191 IN FLOW TIME STEP     1 STRESS PERIOD     2
      4 TOTAL ITERATIONS
     1 CALLS TO GCG PACKAGE FOR TRANSPORT TIME STEP  1192 IN FLOW TIME STEP     1 STRESS PERIOD     2
      4 TOTAL ITERATIONS
     1 CALLS TO GCG PACKAGE FOR TRANSPORT TIME STEP  1193 IN FLOW TIME STEP     1 STRESS PERIOD     2
      4 TOTAL ITERATIONS
     1 CALLS TO GCG PACKAGE FOR TRANSPORT TIME STEP  1194 IN FLOW TIME STEP     1 STRESS PERIOD     2
      4 TOTAL ITERATIONS
     1 CALLS TO GCG PACKAGE FOR TRANSPORT TIME STEP  1195 IN FLOW TIME STEP     1 STRESS PERIOD     2
      4 TOTAL ITERATIONS
     1 CALLS TO GCG PACKAGE FOR TRANSPORT TIME STEP  1196 IN FLOW TIME STEP     1 STRESS PERIOD     2
      4 TOTAL ITERATIONS
     1 CALLS TO GCG PACKAGE FOR TRANSPORT TIME STEP  1197 IN FLOW TIME STEP     1 STRESS PERIOD     2
      4 TOTAL ITERATIONS
     1 CALLS TO GCG PACKAGE FOR TRANSPORT TIME STEP  1198 IN FLOW TIME STEP     1 STRESS PERIOD     2
      4 TOTAL ITERATIONS
     1 CALLS TO GCG PACKAGE FOR TRANSPORT TIME STEP  1199 IN FLOW TIME STEP     1 STRESS PERIOD     2
      4 TOTAL ITERATIONS
     1 CALLS TO GCG PACKAGE FOR TRANSPORT TIME STEP  1200 IN FLOW TIME STEP     1 STRESS PERIOD     2
      4 TOTAL ITERATIONS
     1 CALLS TO GCG PACKAGE FOR TRANSPORT TIME STEP  1201 IN FLOW TIME STEP     1 STRESS PERIOD     2
      4 TOTAL ITERATIONS
     1 CALLS TO GCG PACKAGE FOR TRANSPORT TIME STEP  1202 IN FLOW TIME STEP     1 STRESS PERIOD     2
      4 TOTAL ITERATIONS
     1 CALLS TO GCG PACKAGE FOR TRANSPORT TIME STEP  1203 IN FLOW TIME STEP     1 STRESS PERIOD     2
      4 TOTAL ITERATIONS
     1 CALLS TO GCG PACKAGE FOR TRANSPORT TIME STEP  1204 IN FLOW TIME STEP     1 STRESS PERIOD     2
      4 TOTAL ITERATIONS
     1 CALLS TO GCG PACKAGE FOR TRANSPORT TIME STEP  1205 IN FLOW TIME STEP     1 STRESS PERIOD     2
      4 TOTAL ITERATIONS
     1 CALLS TO GCG PACKAGE FOR TRANSPORT TIME STEP  1206 IN FLOW TIME STEP     1 STRESS PERIOD     2
      4 TOTAL ITERATIONS
     1 CALLS TO GCG PACKAGE FOR TRANSPORT TIME STEP  1207 IN FLOW TIME STEP     1 STRESS PERIOD     2
      4 TOTAL ITERATIONS
     1 CALLS TO GCG PACKAGE FOR TRANSPORT TIME STEP  1208 IN FLOW TIME STEP     1 STRESS PERIOD     2
      4 TOTAL ITERATIONS
     1 CALLS TO GCG PACKAGE FOR TRANSPORT TIME STEP  1209 IN FLOW TIME STEP     1 STRESS PERIOD     2
      4 TOTAL ITERATIONS
     1 CALLS TO GCG PACKAGE FOR TRANSPORT TIME STEP  1210 IN FLOW TIME STEP     1 STRESS PERIOD     2
      4 TOTAL ITERATIONS
     1 CALLS TO GCG PACKAGE FOR TRANSPORT TIME STEP  1211 IN FLOW TIME STEP     1 STRESS PERIOD     2
      4 TOTAL ITERATIONS
     1 CALLS TO GCG PACKAGE FOR TRANSPORT TIME STEP  1212 IN FLOW TIME STEP     1 STRESS PERIOD     2
      4 TOTAL ITERATIONS
     1 CALLS TO GCG PACKAGE FOR TRANSPORT TIME STEP  1213 IN FLOW TIME STEP     1 STRESS PERIOD     2
      4 TOTAL ITERATIONS
     1 CALLS TO GCG PACKAGE FOR TRANSPORT TIME STEP  1214 IN FLOW TIME STEP     1 STRESS PERIOD     2
      4 TOTAL ITERATIONS
     1 CALLS TO GCG PACKAGE FOR TRANSPORT TIME STEP  1215 IN FLOW TIME STEP     1 STRESS PERIOD     2
      4 TOTAL ITERATIONS
     1 CALLS TO GCG PACKAGE FOR TRANSPORT TIME STEP  1216 IN FLOW TIME STEP     1 STRESS PERIOD     2
      4 TOTAL ITERATIONS
     1 CALLS TO GCG PACKAGE FOR TRANSPORT TIME STEP  1217 IN FLOW TIME STEP     1 STRESS PERIOD     2
      4 TOTAL ITERATIONS
     1 CALLS TO GCG PACKAGE FOR TRANSPORT TIME STEP  1218 IN FLOW TIME STEP     1 STRESS PERIOD     2
      4 TOTAL ITERATIONS
     1 CALLS TO GCG PACKAGE FOR TRANSPORT TIME STEP  1219 IN FLOW TIME STEP     1 STRESS PERIOD     2
      4 TOTAL ITERATIONS
     1 CALLS TO GCG PACKAGE FOR TRANSPORT TIME STEP  1220 IN FLOW TIME STEP     1 STRESS PERIOD     2
      4 TOTAL ITERATIONS
     1 CALLS TO GCG PACKAGE FOR TRANSPORT TIME STEP  1221 IN FLOW TIME STEP     1 STRESS PERIOD     2
      4 TOTAL ITERATIONS
     1 CALLS TO GCG PACKAGE FOR TRANSPORT TIME STEP  1222 IN FLOW TIME STEP     1 STRESS PERIOD     2
      4 TOTAL ITERATIONS
     1 CALLS TO GCG PACKAGE FOR TRANSPORT TIME STEP  1223 IN FLOW TIME STEP     1 STRESS PERIOD     2
      4 TOTAL ITERATIONS
     1 CALLS TO GCG PACKAGE FOR TRANSPORT TIME STEP  1224 IN FLOW TIME STEP     1 STRESS PERIOD     2
      4 TOTAL ITERATIONS
     1 CALLS TO GCG PACKAGE FOR TRANSPORT TIME STEP  1225 IN FLOW TIME STEP     1 STRESS PERIOD     2
      4 TOTAL ITERATIONS
     1 CALLS TO GCG PACKAGE FOR TRANSPORT TIME STEP  1226 IN FLOW TIME STEP     1 STRESS PERIOD     2
      4 TOTAL ITERATIONS
     1 CALLS TO GCG PACKAGE FOR TRANSPORT TIME STEP  1227 IN FLOW TIME STEP     1 STRESS PERIOD     2
      4 TOTAL ITERATIONS
     1 CALLS TO GCG PACKAGE FOR TRANSPORT TIME STEP  1228 IN FLOW TIME STEP     1 STRESS PERIOD     2
      4 TOTAL ITERATIONS
     1 CALLS TO GCG PACKAGE FOR TRANSPORT TIME STEP  1229 IN FLOW TIME STEP     1 STRESS PERIOD     2
      4 TOTAL ITERATIONS
     1 CALLS TO GCG PACKAGE FOR TRANSPORT TIME STEP  1230 IN FLOW TIME STEP     1 STRESS PERIOD     2
      4 TOTAL ITERATIONS
     1 CALLS TO GCG PACKAGE FOR TRANSPORT TIME STEP  1231 IN FLOW TIME STEP     1 STRESS PERIOD     2
      4 TOTAL ITERATIONS
     1 CALLS TO GCG PACKAGE FOR TRANSPORT TIME STEP  1232 IN FLOW TIME STEP     1 STRESS PERIOD     2
      4 TOTAL ITERATIONS
     1 CALLS TO GCG PACKAGE FOR TRANSPORT TIME STEP  1233 IN FLOW TIME STEP     1 STRESS PERIOD     2
      3 TOTAL ITERATIONS



 >>>>>>>>>>>>>>>>>>>>>>>>>>>>>>>>>>>>>>>>>>>>>>>>>>>>>>>FOR COMPONENT NO. 01<<<<<<<<<<<<<<<<<<<<<<<<<<<<<<<<<<<<<<<<<<<<<<<<<<<<<<<


                                            -------------------------------------------
                                                      TRANSPORT STEP NO. 1233
                                            -------------------------------------------

 TOTAL ELAPSED TIME SINCE BEGINNING OF SIMULATION =   31.98000    D   
 .....................................................................

                     CUMULATIVE MASS BUDGETS AT END OF TRANSPORT STEP 1233, TIME STEP    1, STRESS PERIOD    2
                     -----------------------------------------------------------------------------------------

                                                             IN                           OUT
                                                      ----------------             ----------------
                               CONSTANT CONCENTRATION:    0.000000                    0.000000    
                                        CONSTANT HEAD:    0.000000                  -0.1388573E-01
                                                WELLS:   0.1973648E-01                0.000000    
                               MASS STOR (FLOW MODEL):    0.000000                    0.000000    
                                MASS STORAGE (SOLUTE):   0.8770237E-05              -0.5860213E-02
                            ---------------------------------------------------------------------------
                                              [TOTAL]:   0.1974525E-01 KG           -0.1974594E-01 KG  

                                                          NET (IN - OUT):  -0.6854534E-06
                                                   DISCREPANCY (PERCENT):  -0.3471424E-02
     1 CALLS TO GCG PACKAGE FOR TRANSPORT TIME STEP  1234 IN FLOW TIME STEP     1 STRESS PERIOD     2
      4 TOTAL ITERATIONS
     1 CALLS TO GCG PACKAGE FOR TRANSPORT TIME STEP  1235 IN FLOW TIME STEP     1 STRESS PERIOD     2
      2 TOTAL ITERATIONS
  MAXIMUM CONCENTRATION CHANGES FOR EACH ITERATION:
  MAX. CHANGE LAYER,ROW,COL MAX. CHANGE LAYER,ROW,COL MAX. CHANGE LAYER,ROW,COL MAX. CHANGE LAYER,ROW,COL MAX. CHANGE LAYER,ROW,COL
 ------------------------------------------------------------------------------------------------------------------------------------
   0.2988E-01 (  2,  1,120)  0.5603E-05 ( 40,  1,120)



 >>>>>>>>>>>>>>>>>>>>>>>>>>>>>>>>>>>>>>>>>>>>>>>>>>>>>>>FOR COMPONENT NO. 01<<<<<<<<<<<<<<<<<<<<<<<<<<<<<<<<<<<<<<<<<<<<<<<<<<<<<<<


                                            -------------------------------------------
                                                      TRANSPORT STEP NO. 1235
                                            -------------------------------------------

 TOTAL ELAPSED TIME SINCE BEGINNING OF SIMULATION =   32.00000    D   
 .....................................................................

                     CUMULATIVE MASS BUDGETS AT END OF TRANSPORT STEP 1235, TIME STEP    1, STRESS PERIOD    2
                     -----------------------------------------------------------------------------------------

                                                             IN                           OUT
                                                      ----------------             ----------------
                               CONSTANT CONCENTRATION:    0.000000                    0.000000    
                                        CONSTANT HEAD:    0.000000                  -0.1389774E-01
                                                WELLS:   0.1974883E-01                0.000000    
                               MASS STOR (FLOW MODEL):    0.000000                    0.000000    
                                MASS STORAGE (SOLUTE):   0.8778768E-05              -0.5860550E-02
                            ---------------------------------------------------------------------------
                                              [TOTAL]:   0.1975761E-01 KG           -0.1975829E-01 KG  

                                                          NET (IN - OUT):  -0.6854534E-06
                                                   DISCREPANCY (PERCENT):  -0.3469254E-02


                                   ++++++++++++++++++++++++++++++++++++++++++++++++++++++++++++++
                                                       STRESS PERIOD NO.  003
                                   ++++++++++++++++++++++++++++++++++++++++++++++++++++++++++++++


 LENGTH OF CURRENT STRESS PERIOD =   50.00000    
 NUMBER OF TIME STEPS FOR CURRENT STRESS PERIOD =    1
 TIME STEP MULTIPLIER USED IN FLOW SOLUTION =   1.000000    

 ***Type of Transport Simulation is TRANSIENT

 USER-SPECIFIED TRANSPORT STEPSIZE =   0.000000    D   
 MAXIMUM NUMBER OF TRANSPORT STEPS ALLOWED  IN ONE FLOW TIME STEP =     50000
 MULTIPLIER FOR SUCCESSIVE TRANSPORT STEPS  [USED IN IMPLICIT SCHEMES] =     1.000
 MAXIMUM TRANSPORT STEP SIZE  [USED IN IMPLICIT SCHEMES] =   0.000000    D   

 POINT SINKS/SOURCES OF SPECIFIED CONCENTRATION REUSED FROM LAST STRESS PERIOD


                                          ================================================
                                                         TIME STEP NO.  001
                                          ================================================

 FROM TIME =   32.000     TO    82.000    


                    "THKSAT          " FLOW TERMS FOR TIME STEP  1, STRESS PERIOD  3 READ UNFORMATTED ON UNIT 10
                    --------------------------------------------------------------------------------------------

                    "QXX             " FLOW TERMS FOR TIME STEP  1, STRESS PERIOD  3 READ UNFORMATTED ON UNIT 10
                    --------------------------------------------------------------------------------------------

                    "QZZ             " FLOW TERMS FOR TIME STEP  1, STRESS PERIOD  3 READ UNFORMATTED ON UNIT 10
                    --------------------------------------------------------------------------------------------

 MAXIMUM STEPSIZE DURING WHICH ANY PARTICLE CANNOT MOVE MORE THAN ONE CELL
 = 0.3076E-01(WHEN MIN. R.F.=1)  AT K=  10, I=   1, J=  16

 MAXIMUM STEPSIZE WHICH MEETS STABILITY CRITERION OF THE ADVECTION TERM
 (FOR PURE FINITE-DIFFERENCE OPTION, MIXELM=0) 
 = 0.2420E-01(WHEN MIN. R.F.=1)  AT K=  10, I=   1, J=  15

                    "CNH             " FLOW TERMS FOR TIME STEP  1, STRESS PERIOD  3 READ UNFORMATTED ON UNIT 10
                    --------------------------------------------------------------------------------------------

                    "WEL             " FLOW TERMS FOR TIME STEP  1, STRESS PERIOD  3 READ UNFORMATTED ON UNIT 10
                    --------------------------------------------------------------------------------------------


 TOTAL NUMBER OF POINT SOURCES/SINKS PRESENT IN THE FLOW MODEL =    80

 MAXIMUM STEPSIZE WHICH MEETS STABILITY CRITERION OF THE SINK & SOURCE TERM
 = 0.7778E-01(WHEN MIN. R.F.=1)  AT K=  16, I=   1, J=   1

 MAXIMUM STEPSIZE WHICH MEETS STABILITY CRITERION OF THE DISPERSION TERM
 = 0.1234E-01(WHEN MIN. R.F.=1)  AT K=  10, I=   1, J=  15


     1 CALLS TO GCG PACKAGE FOR TRANSPORT TIME STEP     1 IN FLOW TIME STEP     1 STRESS PERIOD     3
      4 TOTAL ITERATIONS
     1 CALLS TO GCG PACKAGE FOR TRANSPORT TIME STEP     2 IN FLOW TIME STEP     1 STRESS PERIOD     3
      4 TOTAL ITERATIONS
     1 CALLS TO GCG PACKAGE FOR TRANSPORT TIME STEP     3 IN FLOW TIME STEP     1 STRESS PERIOD     3
      4 TOTAL ITERATIONS
     1 CALLS TO GCG PACKAGE FOR TRANSPORT TIME STEP     4 IN FLOW TIME STEP     1 STRESS PERIOD     3
      4 TOTAL ITERATIONS
     1 CALLS TO GCG PACKAGE FOR TRANSPORT TIME STEP     5 IN FLOW TIME STEP     1 STRESS PERIOD     3
      4 TOTAL ITERATIONS
     1 CALLS TO GCG PACKAGE FOR TRANSPORT TIME STEP     6 IN FLOW TIME STEP     1 STRESS PERIOD     3
      4 TOTAL ITERATIONS
     1 CALLS TO GCG PACKAGE FOR TRANSPORT TIME STEP     7 IN FLOW TIME STEP     1 STRESS PERIOD     3
      4 TOTAL ITERATIONS
     1 CALLS TO GCG PACKAGE FOR TRANSPORT TIME STEP     8 IN FLOW TIME STEP     1 STRESS PERIOD     3
      4 TOTAL ITERATIONS
     1 CALLS TO GCG PACKAGE FOR TRANSPORT TIME STEP     9 IN FLOW TIME STEP     1 STRESS PERIOD     3
      4 TOTAL ITERATIONS
     1 CALLS TO GCG PACKAGE FOR TRANSPORT TIME STEP    10 IN FLOW TIME STEP     1 STRESS PERIOD     3
      4 TOTAL ITERATIONS
     1 CALLS TO GCG PACKAGE FOR TRANSPORT TIME STEP    11 IN FLOW TIME STEP     1 STRESS PERIOD     3
      4 TOTAL ITERATIONS
     1 CALLS TO GCG PACKAGE FOR TRANSPORT TIME STEP    12 IN FLOW TIME STEP     1 STRESS PERIOD     3
      4 TOTAL ITERATIONS
     1 CALLS TO GCG PACKAGE FOR TRANSPORT TIME STEP    13 IN FLOW TIME STEP     1 STRESS PERIOD     3
      4 TOTAL ITERATIONS
     1 CALLS TO GCG PACKAGE FOR TRANSPORT TIME STEP    14 IN FLOW TIME STEP     1 STRESS PERIOD     3
      4 TOTAL ITERATIONS
     1 CALLS TO GCG PACKAGE FOR TRANSPORT TIME STEP    15 IN FLOW TIME STEP     1 STRESS PERIOD     3
      4 TOTAL ITERATIONS
     1 CALLS TO GCG PACKAGE FOR TRANSPORT TIME STEP    16 IN FLOW TIME STEP     1 STRESS PERIOD     3
      4 TOTAL ITERATIONS
     1 CALLS TO GCG PACKAGE FOR TRANSPORT TIME STEP    17 IN FLOW TIME STEP     1 STRESS PERIOD     3
      4 TOTAL ITERATIONS
     1 CALLS TO GCG PACKAGE FOR TRANSPORT TIME STEP    18 IN FLOW TIME STEP     1 STRESS PERIOD     3
      4 TOTAL ITERATIONS
     1 CALLS TO GCG PACKAGE FOR TRANSPORT TIME STEP    19 IN FLOW TIME STEP     1 STRESS PERIOD     3
      4 TOTAL ITERATIONS
     1 CALLS TO GCG PACKAGE FOR TRANSPORT TIME STEP    20 IN FLOW TIME STEP     1 STRESS PERIOD     3
      4 TOTAL ITERATIONS
     1 CALLS TO GCG PACKAGE FOR TRANSPORT TIME STEP    21 IN FLOW TIME STEP     1 STRESS PERIOD     3
      4 TOTAL ITERATIONS
     1 CALLS TO GCG PACKAGE FOR TRANSPORT TIME STEP    22 IN FLOW TIME STEP     1 STRESS PERIOD     3
      4 TOTAL ITERATIONS
     1 CALLS TO GCG PACKAGE FOR TRANSPORT TIME STEP    23 IN FLOW TIME STEP     1 STRESS PERIOD     3
      4 TOTAL ITERATIONS
     1 CALLS TO GCG PACKAGE FOR TRANSPORT TIME STEP    24 IN FLOW TIME STEP     1 STRESS PERIOD     3
      4 TOTAL ITERATIONS
     1 CALLS TO GCG PACKAGE FOR TRANSPORT TIME STEP    25 IN FLOW TIME STEP     1 STRESS PERIOD     3
      4 TOTAL ITERATIONS
     1 CALLS TO GCG PACKAGE FOR TRANSPORT TIME STEP    26 IN FLOW TIME STEP     1 STRESS PERIOD     3
      4 TOTAL ITERATIONS
     1 CALLS TO GCG PACKAGE FOR TRANSPORT TIME STEP    27 IN FLOW TIME STEP     1 STRESS PERIOD     3
      4 TOTAL ITERATIONS
     1 CALLS TO GCG PACKAGE FOR TRANSPORT TIME STEP    28 IN FLOW TIME STEP     1 STRESS PERIOD     3
      4 TOTAL ITERATIONS
     1 CALLS TO GCG PACKAGE FOR TRANSPORT TIME STEP    29 IN FLOW TIME STEP     1 STRESS PERIOD     3
      4 TOTAL ITERATIONS
     1 CALLS TO GCG PACKAGE FOR TRANSPORT TIME STEP    30 IN FLOW TIME STEP     1 STRESS PERIOD     3
      4 TOTAL ITERATIONS
     1 CALLS TO GCG PACKAGE FOR TRANSPORT TIME STEP    31 IN FLOW TIME STEP     1 STRESS PERIOD     3
      4 TOTAL ITERATIONS
     1 CALLS TO GCG PACKAGE FOR TRANSPORT TIME STEP    32 IN FLOW TIME STEP     1 STRESS PERIOD     3
      4 TOTAL ITERATIONS
     1 CALLS TO GCG PACKAGE FOR TRANSPORT TIME STEP    33 IN FLOW TIME STEP     1 STRESS PERIOD     3
      4 TOTAL ITERATIONS
     1 CALLS TO GCG PACKAGE FOR TRANSPORT TIME STEP    34 IN FLOW TIME STEP     1 STRESS PERIOD     3
      4 TOTAL ITERATIONS
     1 CALLS TO GCG PACKAGE FOR TRANSPORT TIME STEP    35 IN FLOW TIME STEP     1 STRESS PERIOD     3
      4 TOTAL ITERATIONS
     1 CALLS TO GCG PACKAGE FOR TRANSPORT TIME STEP    36 IN FLOW TIME STEP     1 STRESS PERIOD     3
      4 TOTAL ITERATIONS
     1 CALLS TO GCG PACKAGE FOR TRANSPORT TIME STEP    37 IN FLOW TIME STEP     1 STRESS PERIOD     3
      4 TOTAL ITERATIONS
     1 CALLS TO GCG PACKAGE FOR TRANSPORT TIME STEP    38 IN FLOW TIME STEP     1 STRESS PERIOD     3
      4 TOTAL ITERATIONS
     1 CALLS TO GCG PACKAGE FOR TRANSPORT TIME STEP    39 IN FLOW TIME STEP     1 STRESS PERIOD     3
      4 TOTAL ITERATIONS
     1 CALLS TO GCG PACKAGE FOR TRANSPORT TIME STEP    40 IN FLOW TIME STEP     1 STRESS PERIOD     3
      4 TOTAL ITERATIONS
     1 CALLS TO GCG PACKAGE FOR TRANSPORT TIME STEP    41 IN FLOW TIME STEP     1 STRESS PERIOD     3
      4 TOTAL ITERATIONS
     1 CALLS TO GCG PACKAGE FOR TRANSPORT TIME STEP    42 IN FLOW TIME STEP     1 STRESS PERIOD     3
      4 TOTAL ITERATIONS
     1 CALLS TO GCG PACKAGE FOR TRANSPORT TIME STEP    43 IN FLOW TIME STEP     1 STRESS PERIOD     3
      4 TOTAL ITERATIONS
     1 CALLS TO GCG PACKAGE FOR TRANSPORT TIME STEP    44 IN FLOW TIME STEP     1 STRESS PERIOD     3
      4 TOTAL ITERATIONS
     1 CALLS TO GCG PACKAGE FOR TRANSPORT TIME STEP    45 IN FLOW TIME STEP     1 STRESS PERIOD     3
      2 TOTAL ITERATIONS



 >>>>>>>>>>>>>>>>>>>>>>>>>>>>>>>>>>>>>>>>>>>>>>>>>>>>>>>FOR COMPONENT NO. 01<<<<<<<<<<<<<<<<<<<<<<<<<<<<<<<<<<<<<<<<<<<<<<<<<<<<<<<


                                            -------------------------------------------
                                                      TRANSPORT STEP NO.   45
                                            -------------------------------------------

 TOTAL ELAPSED TIME SINCE BEGINNING OF SIMULATION =   32.80000    D   
 .....................................................................

                     CUMULATIVE MASS BUDGETS AT END OF TRANSPORT STEP   45, TIME STEP    1, STRESS PERIOD    3
                     -----------------------------------------------------------------------------------------

                                                             IN                           OUT
                                                      ----------------             ----------------
                               CONSTANT CONCENTRATION:    0.000000                    0.000000    
                                        CONSTANT HEAD:    0.000000                  -0.1437865E-01
                                                WELLS:   0.2024255E-01                0.000000    
                               MASS STOR (FLOW MODEL):    0.000000                    0.000000    
                                MASS STORAGE (SOLUTE):   0.1528980E-04              -0.5879844E-02
                            ---------------------------------------------------------------------------
                                              [TOTAL]:   0.2025784E-01 KG           -0.2025849E-01 KG  

                                                          NET (IN - OUT):  -0.6537884E-06
                                                   DISCREPANCY (PERCENT):  -0.3227284E-02
     1 CALLS TO GCG PACKAGE FOR TRANSPORT TIME STEP    46 IN FLOW TIME STEP     1 STRESS PERIOD     3
      4 TOTAL ITERATIONS
     1 CALLS TO GCG PACKAGE FOR TRANSPORT TIME STEP    47 IN FLOW TIME STEP     1 STRESS PERIOD     3
      4 TOTAL ITERATIONS
     1 CALLS TO GCG PACKAGE FOR TRANSPORT TIME STEP    48 IN FLOW TIME STEP     1 STRESS PERIOD     3
      4 TOTAL ITERATIONS
     1 CALLS TO GCG PACKAGE FOR TRANSPORT TIME STEP    49 IN FLOW TIME STEP     1 STRESS PERIOD     3
      4 TOTAL ITERATIONS
     1 CALLS TO GCG PACKAGE FOR TRANSPORT TIME STEP    50 IN FLOW TIME STEP     1 STRESS PERIOD     3
      4 TOTAL ITERATIONS
     1 CALLS TO GCG PACKAGE FOR TRANSPORT TIME STEP    51 IN FLOW TIME STEP     1 STRESS PERIOD     3
      4 TOTAL ITERATIONS
     1 CALLS TO GCG PACKAGE FOR TRANSPORT TIME STEP    52 IN FLOW TIME STEP     1 STRESS PERIOD     3
      4 TOTAL ITERATIONS
     1 CALLS TO GCG PACKAGE FOR TRANSPORT TIME STEP    53 IN FLOW TIME STEP     1 STRESS PERIOD     3
      4 TOTAL ITERATIONS
     1 CALLS TO GCG PACKAGE FOR TRANSPORT TIME STEP    54 IN FLOW TIME STEP     1 STRESS PERIOD     3
      4 TOTAL ITERATIONS
     1 CALLS TO GCG PACKAGE FOR TRANSPORT TIME STEP    55 IN FLOW TIME STEP     1 STRESS PERIOD     3
      4 TOTAL ITERATIONS
     1 CALLS TO GCG PACKAGE FOR TRANSPORT TIME STEP    56 IN FLOW TIME STEP     1 STRESS PERIOD     3
      4 TOTAL ITERATIONS
     1 CALLS TO GCG PACKAGE FOR TRANSPORT TIME STEP    57 IN FLOW TIME STEP     1 STRESS PERIOD     3
      4 TOTAL ITERATIONS
     1 CALLS TO GCG PACKAGE FOR TRANSPORT TIME STEP    58 IN FLOW TIME STEP     1 STRESS PERIOD     3
      4 TOTAL ITERATIONS
     1 CALLS TO GCG PACKAGE FOR TRANSPORT TIME STEP    59 IN FLOW TIME STEP     1 STRESS PERIOD     3
      4 TOTAL ITERATIONS
     1 CALLS TO GCG PACKAGE FOR TRANSPORT TIME STEP    60 IN FLOW TIME STEP     1 STRESS PERIOD     3
      4 TOTAL ITERATIONS
     1 CALLS TO GCG PACKAGE FOR TRANSPORT TIME STEP    61 IN FLOW TIME STEP     1 STRESS PERIOD     3
      4 TOTAL ITERATIONS
     1 CALLS TO GCG PACKAGE FOR TRANSPORT TIME STEP    62 IN FLOW TIME STEP     1 STRESS PERIOD     3
      4 TOTAL ITERATIONS
     1 CALLS TO GCG PACKAGE FOR TRANSPORT TIME STEP    63 IN FLOW TIME STEP     1 STRESS PERIOD     3
      4 TOTAL ITERATIONS
     1 CALLS TO GCG PACKAGE FOR TRANSPORT TIME STEP    64 IN FLOW TIME STEP     1 STRESS PERIOD     3
      4 TOTAL ITERATIONS
     1 CALLS TO GCG PACKAGE FOR TRANSPORT TIME STEP    65 IN FLOW TIME STEP     1 STRESS PERIOD     3
      4 TOTAL ITERATIONS
     1 CALLS TO GCG PACKAGE FOR TRANSPORT TIME STEP    66 IN FLOW TIME STEP     1 STRESS PERIOD     3
      4 TOTAL ITERATIONS
     1 CALLS TO GCG PACKAGE FOR TRANSPORT TIME STEP    67 IN FLOW TIME STEP     1 STRESS PERIOD     3
      4 TOTAL ITERATIONS
     1 CALLS TO GCG PACKAGE FOR TRANSPORT TIME STEP    68 IN FLOW TIME STEP     1 STRESS PERIOD     3
      4 TOTAL ITERATIONS
     1 CALLS TO GCG PACKAGE FOR TRANSPORT TIME STEP    69 IN FLOW TIME STEP     1 STRESS PERIOD     3
      4 TOTAL ITERATIONS
     1 CALLS TO GCG PACKAGE FOR TRANSPORT TIME STEP    70 IN FLOW TIME STEP     1 STRESS PERIOD     3
      4 TOTAL ITERATIONS
     1 CALLS TO GCG PACKAGE FOR TRANSPORT TIME STEP    71 IN FLOW TIME STEP     1 STRESS PERIOD     3
      4 TOTAL ITERATIONS
     1 CALLS TO GCG PACKAGE FOR TRANSPORT TIME STEP    72 IN FLOW TIME STEP     1 STRESS PERIOD     3
      4 TOTAL ITERATIONS
     1 CALLS TO GCG PACKAGE FOR TRANSPORT TIME STEP    73 IN FLOW TIME STEP     1 STRESS PERIOD     3
      4 TOTAL ITERATIONS
     1 CALLS TO GCG PACKAGE FOR TRANSPORT TIME STEP    74 IN FLOW TIME STEP     1 STRESS PERIOD     3
      4 TOTAL ITERATIONS
     1 CALLS TO GCG PACKAGE FOR TRANSPORT TIME STEP    75 IN FLOW TIME STEP     1 STRESS PERIOD     3
      4 TOTAL ITERATIONS
     1 CALLS TO GCG PACKAGE FOR TRANSPORT TIME STEP    76 IN FLOW TIME STEP     1 STRESS PERIOD     3
      4 TOTAL ITERATIONS
     1 CALLS TO GCG PACKAGE FOR TRANSPORT TIME STEP    77 IN FLOW TIME STEP     1 STRESS PERIOD     3
      4 TOTAL ITERATIONS
     1 CALLS TO GCG PACKAGE FOR TRANSPORT TIME STEP    78 IN FLOW TIME STEP     1 STRESS PERIOD     3
      4 TOTAL ITERATIONS
     1 CALLS TO GCG PACKAGE FOR TRANSPORT TIME STEP    79 IN FLOW TIME STEP     1 STRESS PERIOD     3
      4 TOTAL ITERATIONS
     1 CALLS TO GCG PACKAGE FOR TRANSPORT TIME STEP    80 IN FLOW TIME STEP     1 STRESS PERIOD     3
      4 TOTAL ITERATIONS
     1 CALLS TO GCG PACKAGE FOR TRANSPORT TIME STEP    81 IN FLOW TIME STEP     1 STRESS PERIOD     3
      4 TOTAL ITERATIONS
     1 CALLS TO GCG PACKAGE FOR TRANSPORT TIME STEP    82 IN FLOW TIME STEP     1 STRESS PERIOD     3
      4 TOTAL ITERATIONS
     1 CALLS TO GCG PACKAGE FOR TRANSPORT TIME STEP    83 IN FLOW TIME STEP     1 STRESS PERIOD     3
      4 TOTAL ITERATIONS
     1 CALLS TO GCG PACKAGE FOR TRANSPORT TIME STEP    84 IN FLOW TIME STEP     1 STRESS PERIOD     3
      4 TOTAL ITERATIONS
     1 CALLS TO GCG PACKAGE FOR TRANSPORT TIME STEP    85 IN FLOW TIME STEP     1 STRESS PERIOD     3
      4 TOTAL ITERATIONS
     1 CALLS TO GCG PACKAGE FOR TRANSPORT TIME STEP    86 IN FLOW TIME STEP     1 STRESS PERIOD     3
      4 TOTAL ITERATIONS
     1 CALLS TO GCG PACKAGE FOR TRANSPORT TIME STEP    87 IN FLOW TIME STEP     1 STRESS PERIOD     3
      4 TOTAL ITERATIONS
     1 CALLS TO GCG PACKAGE FOR TRANSPORT TIME STEP    88 IN FLOW TIME STEP     1 STRESS PERIOD     3
      4 TOTAL ITERATIONS
     1 CALLS TO GCG PACKAGE FOR TRANSPORT TIME STEP    89 IN FLOW TIME STEP     1 STRESS PERIOD     3
      4 TOTAL ITERATIONS
     1 CALLS TO GCG PACKAGE FOR TRANSPORT TIME STEP    90 IN FLOW TIME STEP     1 STRESS PERIOD     3
      4 TOTAL ITERATIONS
     1 CALLS TO GCG PACKAGE FOR TRANSPORT TIME STEP    91 IN FLOW TIME STEP     1 STRESS PERIOD     3
      3 TOTAL ITERATIONS



 >>>>>>>>>>>>>>>>>>>>>>>>>>>>>>>>>>>>>>>>>>>>>>>>>>>>>>>FOR COMPONENT NO. 01<<<<<<<<<<<<<<<<<<<<<<<<<<<<<<<<<<<<<<<<<<<<<<<<<<<<<<<


                                            -------------------------------------------
                                                      TRANSPORT STEP NO.   91
                                            -------------------------------------------

 TOTAL ELAPSED TIME SINCE BEGINNING OF SIMULATION =   33.62000    D   
 .....................................................................

                     CUMULATIVE MASS BUDGETS AT END OF TRANSPORT STEP   91, TIME STEP    1, STRESS PERIOD    3
                     -----------------------------------------------------------------------------------------

                                                             IN                           OUT
                                                      ----------------             ----------------
                               CONSTANT CONCENTRATION:    0.000000                    0.000000    
                                        CONSTANT HEAD:    0.000000                  -0.1487256E-01
                                                WELLS:   0.2074861E-01                0.000000    
                               MASS STOR (FLOW MODEL):    0.000000                    0.000000    
                                MASS STORAGE (SOLUTE):   0.1712445E-04              -0.5893797E-02
                            ---------------------------------------------------------------------------
                                              [TOTAL]:   0.2076573E-01 KG           -0.2076636E-01 KG  

                                                          NET (IN - OUT):  -0.6221235E-06
                                                   DISCREPANCY (PERCENT):  -0.2995869E-02
     1 CALLS TO GCG PACKAGE FOR TRANSPORT TIME STEP    92 IN FLOW TIME STEP     1 STRESS PERIOD     3
      4 TOTAL ITERATIONS
     1 CALLS TO GCG PACKAGE FOR TRANSPORT TIME STEP    93 IN FLOW TIME STEP     1 STRESS PERIOD     3
      4 TOTAL ITERATIONS
     1 CALLS TO GCG PACKAGE FOR TRANSPORT TIME STEP    94 IN FLOW TIME STEP     1 STRESS PERIOD     3
      4 TOTAL ITERATIONS
     1 CALLS TO GCG PACKAGE FOR TRANSPORT TIME STEP    95 IN FLOW TIME STEP     1 STRESS PERIOD     3
      4 TOTAL ITERATIONS
     1 CALLS TO GCG PACKAGE FOR TRANSPORT TIME STEP    96 IN FLOW TIME STEP     1 STRESS PERIOD     3
      4 TOTAL ITERATIONS
     1 CALLS TO GCG PACKAGE FOR TRANSPORT TIME STEP    97 IN FLOW TIME STEP     1 STRESS PERIOD     3
      4 TOTAL ITERATIONS
     1 CALLS TO GCG PACKAGE FOR TRANSPORT TIME STEP    98 IN FLOW TIME STEP     1 STRESS PERIOD     3
      4 TOTAL ITERATIONS
     1 CALLS TO GCG PACKAGE FOR TRANSPORT TIME STEP    99 IN FLOW TIME STEP     1 STRESS PERIOD     3
      4 TOTAL ITERATIONS
     1 CALLS TO GCG PACKAGE FOR TRANSPORT TIME STEP   100 IN FLOW TIME STEP     1 STRESS PERIOD     3
      4 TOTAL ITERATIONS
     1 CALLS TO GCG PACKAGE FOR TRANSPORT TIME STEP   101 IN FLOW TIME STEP     1 STRESS PERIOD     3
      4 TOTAL ITERATIONS
     1 CALLS TO GCG PACKAGE FOR TRANSPORT TIME STEP   102 IN FLOW TIME STEP     1 STRESS PERIOD     3
      4 TOTAL ITERATIONS
     1 CALLS TO GCG PACKAGE FOR TRANSPORT TIME STEP   103 IN FLOW TIME STEP     1 STRESS PERIOD     3
      4 TOTAL ITERATIONS
     1 CALLS TO GCG PACKAGE FOR TRANSPORT TIME STEP   104 IN FLOW TIME STEP     1 STRESS PERIOD     3
      4 TOTAL ITERATIONS
     1 CALLS TO GCG PACKAGE FOR TRANSPORT TIME STEP   105 IN FLOW TIME STEP     1 STRESS PERIOD     3
      4 TOTAL ITERATIONS
     1 CALLS TO GCG PACKAGE FOR TRANSPORT TIME STEP   106 IN FLOW TIME STEP     1 STRESS PERIOD     3
      4 TOTAL ITERATIONS
     1 CALLS TO GCG PACKAGE FOR TRANSPORT TIME STEP   107 IN FLOW TIME STEP     1 STRESS PERIOD     3
      4 TOTAL ITERATIONS
     1 CALLS TO GCG PACKAGE FOR TRANSPORT TIME STEP   108 IN FLOW TIME STEP     1 STRESS PERIOD     3
      4 TOTAL ITERATIONS
     1 CALLS TO GCG PACKAGE FOR TRANSPORT TIME STEP   109 IN FLOW TIME STEP     1 STRESS PERIOD     3
      4 TOTAL ITERATIONS
     1 CALLS TO GCG PACKAGE FOR TRANSPORT TIME STEP   110 IN FLOW TIME STEP     1 STRESS PERIOD     3
      4 TOTAL ITERATIONS
     1 CALLS TO GCG PACKAGE FOR TRANSPORT TIME STEP   111 IN FLOW TIME STEP     1 STRESS PERIOD     3
      4 TOTAL ITERATIONS
     1 CALLS TO GCG PACKAGE FOR TRANSPORT TIME STEP   112 IN FLOW TIME STEP     1 STRESS PERIOD     3
      4 TOTAL ITERATIONS
     1 CALLS TO GCG PACKAGE FOR TRANSPORT TIME STEP   113 IN FLOW TIME STEP     1 STRESS PERIOD     3
      4 TOTAL ITERATIONS
     1 CALLS TO GCG PACKAGE FOR TRANSPORT TIME STEP   114 IN FLOW TIME STEP     1 STRESS PERIOD     3
      4 TOTAL ITERATIONS
     1 CALLS TO GCG PACKAGE FOR TRANSPORT TIME STEP   115 IN FLOW TIME STEP     1 STRESS PERIOD     3
      4 TOTAL ITERATIONS
     1 CALLS TO GCG PACKAGE FOR TRANSPORT TIME STEP   116 IN FLOW TIME STEP     1 STRESS PERIOD     3
      4 TOTAL ITERATIONS
     1 CALLS TO GCG PACKAGE FOR TRANSPORT TIME STEP   117 IN FLOW TIME STEP     1 STRESS PERIOD     3
      4 TOTAL ITERATIONS
     1 CALLS TO GCG PACKAGE FOR TRANSPORT TIME STEP   118 IN FLOW TIME STEP     1 STRESS PERIOD     3
      4 TOTAL ITERATIONS
     1 CALLS TO GCG PACKAGE FOR TRANSPORT TIME STEP   119 IN FLOW TIME STEP     1 STRESS PERIOD     3
      4 TOTAL ITERATIONS
     1 CALLS TO GCG PACKAGE FOR TRANSPORT TIME STEP   120 IN FLOW TIME STEP     1 STRESS PERIOD     3
      4 TOTAL ITERATIONS
     1 CALLS TO GCG PACKAGE FOR TRANSPORT TIME STEP   121 IN FLOW TIME STEP     1 STRESS PERIOD     3
      4 TOTAL ITERATIONS
     1 CALLS TO GCG PACKAGE FOR TRANSPORT TIME STEP   122 IN FLOW TIME STEP     1 STRESS PERIOD     3
      4 TOTAL ITERATIONS
     1 CALLS TO GCG PACKAGE FOR TRANSPORT TIME STEP   123 IN FLOW TIME STEP     1 STRESS PERIOD     3
      4 TOTAL ITERATIONS
     1 CALLS TO GCG PACKAGE FOR TRANSPORT TIME STEP   124 IN FLOW TIME STEP     1 STRESS PERIOD     3
      4 TOTAL ITERATIONS
     1 CALLS TO GCG PACKAGE FOR TRANSPORT TIME STEP   125 IN FLOW TIME STEP     1 STRESS PERIOD     3
      4 TOTAL ITERATIONS
     1 CALLS TO GCG PACKAGE FOR TRANSPORT TIME STEP   126 IN FLOW TIME STEP     1 STRESS PERIOD     3
      4 TOTAL ITERATIONS
     1 CALLS TO GCG PACKAGE FOR TRANSPORT TIME STEP   127 IN FLOW TIME STEP     1 STRESS PERIOD     3
      4 TOTAL ITERATIONS
     1 CALLS TO GCG PACKAGE FOR TRANSPORT TIME STEP   128 IN FLOW TIME STEP     1 STRESS PERIOD     3
      4 TOTAL ITERATIONS
     1 CALLS TO GCG PACKAGE FOR TRANSPORT TIME STEP   129 IN FLOW TIME STEP     1 STRESS PERIOD     3
      4 TOTAL ITERATIONS
     1 CALLS TO GCG PACKAGE FOR TRANSPORT TIME STEP   130 IN FLOW TIME STEP     1 STRESS PERIOD     3
      4 TOTAL ITERATIONS
     1 CALLS TO GCG PACKAGE FOR TRANSPORT TIME STEP   131 IN FLOW TIME STEP     1 STRESS PERIOD     3
      4 TOTAL ITERATIONS
     1 CALLS TO GCG PACKAGE FOR TRANSPORT TIME STEP   132 IN FLOW TIME STEP     1 STRESS PERIOD     3
      4 TOTAL ITERATIONS
     1 CALLS TO GCG PACKAGE FOR TRANSPORT TIME STEP   133 IN FLOW TIME STEP     1 STRESS PERIOD     3
      4 TOTAL ITERATIONS
     1 CALLS TO GCG PACKAGE FOR TRANSPORT TIME STEP   134 IN FLOW TIME STEP     1 STRESS PERIOD     3
      4 TOTAL ITERATIONS
     1 CALLS TO GCG PACKAGE FOR TRANSPORT TIME STEP   135 IN FLOW TIME STEP     1 STRESS PERIOD     3
      4 TOTAL ITERATIONS
     1 CALLS TO GCG PACKAGE FOR TRANSPORT TIME STEP   136 IN FLOW TIME STEP     1 STRESS PERIOD     3
      4 TOTAL ITERATIONS
     1 CALLS TO GCG PACKAGE FOR TRANSPORT TIME STEP   137 IN FLOW TIME STEP     1 STRESS PERIOD     3
      3 TOTAL ITERATIONS



 >>>>>>>>>>>>>>>>>>>>>>>>>>>>>>>>>>>>>>>>>>>>>>>>>>>>>>>FOR COMPONENT NO. 01<<<<<<<<<<<<<<<<<<<<<<<<<<<<<<<<<<<<<<<<<<<<<<<<<<<<<<<


                                            -------------------------------------------
                                                      TRANSPORT STEP NO.  137
                                            -------------------------------------------

 TOTAL ELAPSED TIME SINCE BEGINNING OF SIMULATION =   34.44000    D   
 .....................................................................

                     CUMULATIVE MASS BUDGETS AT END OF TRANSPORT STEP  137, TIME STEP    1, STRESS PERIOD    3
                     -----------------------------------------------------------------------------------------

                                                             IN                           OUT
                                                      ----------------             ----------------
                               CONSTANT CONCENTRATION:    0.000000                    0.000000    
                                        CONSTANT HEAD:    0.000000                  -0.1536738E-01
                                                WELLS:   0.2125467E-01                0.000000    
                               MASS STOR (FLOW MODEL):    0.000000                    0.000000    
                                MASS STORAGE (SOLUTE):   0.1784996E-04              -0.5905736E-02
                            ---------------------------------------------------------------------------
                                              [TOTAL]:   0.2127252E-01 KG           -0.2127311E-01 KG  

                                                          NET (IN - OUT):  -0.5923212E-06
                                                   DISCREPANCY (PERCENT):  -0.2784404E-02
     1 CALLS TO GCG PACKAGE FOR TRANSPORT TIME STEP   138 IN FLOW TIME STEP     1 STRESS PERIOD     3
      4 TOTAL ITERATIONS
     1 CALLS TO GCG PACKAGE FOR TRANSPORT TIME STEP   139 IN FLOW TIME STEP     1 STRESS PERIOD     3
      4 TOTAL ITERATIONS
     1 CALLS TO GCG PACKAGE FOR TRANSPORT TIME STEP   140 IN FLOW TIME STEP     1 STRESS PERIOD     3
      4 TOTAL ITERATIONS
     1 CALLS TO GCG PACKAGE FOR TRANSPORT TIME STEP   141 IN FLOW TIME STEP     1 STRESS PERIOD     3
      4 TOTAL ITERATIONS
     1 CALLS TO GCG PACKAGE FOR TRANSPORT TIME STEP   142 IN FLOW TIME STEP     1 STRESS PERIOD     3
      4 TOTAL ITERATIONS
     1 CALLS TO GCG PACKAGE FOR TRANSPORT TIME STEP   143 IN FLOW TIME STEP     1 STRESS PERIOD     3
      4 TOTAL ITERATIONS
     1 CALLS TO GCG PACKAGE FOR TRANSPORT TIME STEP   144 IN FLOW TIME STEP     1 STRESS PERIOD     3
      4 TOTAL ITERATIONS
     1 CALLS TO GCG PACKAGE FOR TRANSPORT TIME STEP   145 IN FLOW TIME STEP     1 STRESS PERIOD     3
      4 TOTAL ITERATIONS
     1 CALLS TO GCG PACKAGE FOR TRANSPORT TIME STEP   146 IN FLOW TIME STEP     1 STRESS PERIOD     3
      4 TOTAL ITERATIONS
     1 CALLS TO GCG PACKAGE FOR TRANSPORT TIME STEP   147 IN FLOW TIME STEP     1 STRESS PERIOD     3
      4 TOTAL ITERATIONS
     1 CALLS TO GCG PACKAGE FOR TRANSPORT TIME STEP   148 IN FLOW TIME STEP     1 STRESS PERIOD     3
      4 TOTAL ITERATIONS
     1 CALLS TO GCG PACKAGE FOR TRANSPORT TIME STEP   149 IN FLOW TIME STEP     1 STRESS PERIOD     3
      4 TOTAL ITERATIONS
     1 CALLS TO GCG PACKAGE FOR TRANSPORT TIME STEP   150 IN FLOW TIME STEP     1 STRESS PERIOD     3
      4 TOTAL ITERATIONS
     1 CALLS TO GCG PACKAGE FOR TRANSPORT TIME STEP   151 IN FLOW TIME STEP     1 STRESS PERIOD     3
      4 TOTAL ITERATIONS
     1 CALLS TO GCG PACKAGE FOR TRANSPORT TIME STEP   152 IN FLOW TIME STEP     1 STRESS PERIOD     3
      4 TOTAL ITERATIONS
     1 CALLS TO GCG PACKAGE FOR TRANSPORT TIME STEP   153 IN FLOW TIME STEP     1 STRESS PERIOD     3
      4 TOTAL ITERATIONS
     1 CALLS TO GCG PACKAGE FOR TRANSPORT TIME STEP   154 IN FLOW TIME STEP     1 STRESS PERIOD     3
      4 TOTAL ITERATIONS
     1 CALLS TO GCG PACKAGE FOR TRANSPORT TIME STEP   155 IN FLOW TIME STEP     1 STRESS PERIOD     3
      4 TOTAL ITERATIONS
     1 CALLS TO GCG PACKAGE FOR TRANSPORT TIME STEP   156 IN FLOW TIME STEP     1 STRESS PERIOD     3
      4 TOTAL ITERATIONS
     1 CALLS TO GCG PACKAGE FOR TRANSPORT TIME STEP   157 IN FLOW TIME STEP     1 STRESS PERIOD     3
      4 TOTAL ITERATIONS
     1 CALLS TO GCG PACKAGE FOR TRANSPORT TIME STEP   158 IN FLOW TIME STEP     1 STRESS PERIOD     3
      4 TOTAL ITERATIONS
     1 CALLS TO GCG PACKAGE FOR TRANSPORT TIME STEP   159 IN FLOW TIME STEP     1 STRESS PERIOD     3
      4 TOTAL ITERATIONS
     1 CALLS TO GCG PACKAGE FOR TRANSPORT TIME STEP   160 IN FLOW TIME STEP     1 STRESS PERIOD     3
      4 TOTAL ITERATIONS
     1 CALLS TO GCG PACKAGE FOR TRANSPORT TIME STEP   161 IN FLOW TIME STEP     1 STRESS PERIOD     3
      4 TOTAL ITERATIONS
     1 CALLS TO GCG PACKAGE FOR TRANSPORT TIME STEP   162 IN FLOW TIME STEP     1 STRESS PERIOD     3
      4 TOTAL ITERATIONS
     1 CALLS TO GCG PACKAGE FOR TRANSPORT TIME STEP   163 IN FLOW TIME STEP     1 STRESS PERIOD     3
      4 TOTAL ITERATIONS
     1 CALLS TO GCG PACKAGE FOR TRANSPORT TIME STEP   164 IN FLOW TIME STEP     1 STRESS PERIOD     3
      4 TOTAL ITERATIONS
     1 CALLS TO GCG PACKAGE FOR TRANSPORT TIME STEP   165 IN FLOW TIME STEP     1 STRESS PERIOD     3
      4 TOTAL ITERATIONS
     1 CALLS TO GCG PACKAGE FOR TRANSPORT TIME STEP   166 IN FLOW TIME STEP     1 STRESS PERIOD     3
      4 TOTAL ITERATIONS
     1 CALLS TO GCG PACKAGE FOR TRANSPORT TIME STEP   167 IN FLOW TIME STEP     1 STRESS PERIOD     3
      4 TOTAL ITERATIONS
     1 CALLS TO GCG PACKAGE FOR TRANSPORT TIME STEP   168 IN FLOW TIME STEP     1 STRESS PERIOD     3
      4 TOTAL ITERATIONS
     1 CALLS TO GCG PACKAGE FOR TRANSPORT TIME STEP   169 IN FLOW TIME STEP     1 STRESS PERIOD     3
      4 TOTAL ITERATIONS
     1 CALLS TO GCG PACKAGE FOR TRANSPORT TIME STEP   170 IN FLOW TIME STEP     1 STRESS PERIOD     3
      4 TOTAL ITERATIONS
     1 CALLS TO GCG PACKAGE FOR TRANSPORT TIME STEP   171 IN FLOW TIME STEP     1 STRESS PERIOD     3
      4 TOTAL ITERATIONS
     1 CALLS TO GCG PACKAGE FOR TRANSPORT TIME STEP   172 IN FLOW TIME STEP     1 STRESS PERIOD     3
      4 TOTAL ITERATIONS
     1 CALLS TO GCG PACKAGE FOR TRANSPORT TIME STEP   173 IN FLOW TIME STEP     1 STRESS PERIOD     3
      4 TOTAL ITERATIONS
     1 CALLS TO GCG PACKAGE FOR TRANSPORT TIME STEP   174 IN FLOW TIME STEP     1 STRESS PERIOD     3
      4 TOTAL ITERATIONS
     1 CALLS TO GCG PACKAGE FOR TRANSPORT TIME STEP   175 IN FLOW TIME STEP     1 STRESS PERIOD     3
      4 TOTAL ITERATIONS
     1 CALLS TO GCG PACKAGE FOR TRANSPORT TIME STEP   176 IN FLOW TIME STEP     1 STRESS PERIOD     3
      4 TOTAL ITERATIONS
     1 CALLS TO GCG PACKAGE FOR TRANSPORT TIME STEP   177 IN FLOW TIME STEP     1 STRESS PERIOD     3
      4 TOTAL ITERATIONS
     1 CALLS TO GCG PACKAGE FOR TRANSPORT TIME STEP   178 IN FLOW TIME STEP     1 STRESS PERIOD     3
      4 TOTAL ITERATIONS
     1 CALLS TO GCG PACKAGE FOR TRANSPORT TIME STEP   179 IN FLOW TIME STEP     1 STRESS PERIOD     3
      4 TOTAL ITERATIONS
     1 CALLS TO GCG PACKAGE FOR TRANSPORT TIME STEP   180 IN FLOW TIME STEP     1 STRESS PERIOD     3
      4 TOTAL ITERATIONS
     1 CALLS TO GCG PACKAGE FOR TRANSPORT TIME STEP   181 IN FLOW TIME STEP     1 STRESS PERIOD     3
      4 TOTAL ITERATIONS
     1 CALLS TO GCG PACKAGE FOR TRANSPORT TIME STEP   182 IN FLOW TIME STEP     1 STRESS PERIOD     3
      4 TOTAL ITERATIONS
     1 CALLS TO GCG PACKAGE FOR TRANSPORT TIME STEP   183 IN FLOW TIME STEP     1 STRESS PERIOD     3
      3 TOTAL ITERATIONS



 >>>>>>>>>>>>>>>>>>>>>>>>>>>>>>>>>>>>>>>>>>>>>>>>>>>>>>>FOR COMPONENT NO. 01<<<<<<<<<<<<<<<<<<<<<<<<<<<<<<<<<<<<<<<<<<<<<<<<<<<<<<<


                                            -------------------------------------------
                                                      TRANSPORT STEP NO.  183
                                            -------------------------------------------

 TOTAL ELAPSED TIME SINCE BEGINNING OF SIMULATION =   35.26000    D   
 .....................................................................

                     CUMULATIVE MASS BUDGETS AT END OF TRANSPORT STEP  183, TIME STEP    1, STRESS PERIOD    3
                     -----------------------------------------------------------------------------------------

                                                             IN                           OUT
                                                      ----------------             ----------------
                               CONSTANT CONCENTRATION:    0.000000                    0.000000    
                                        CONSTANT HEAD:    0.000000                  -0.1586298E-01
                                                WELLS:   0.2176073E-01                0.000000    
                               MASS STOR (FLOW MODEL):    0.000000                    0.000000    
                                MASS STORAGE (SOLUTE):   0.1819140E-04              -0.5916504E-02
                            ---------------------------------------------------------------------------
                                              [TOTAL]:   0.2177892E-01 KG           -0.2177949E-01 KG  

                                                          NET (IN - OUT):  -0.5643815E-06
                                                   DISCREPANCY (PERCENT):  -0.2591378E-02
     1 CALLS TO GCG PACKAGE FOR TRANSPORT TIME STEP   184 IN FLOW TIME STEP     1 STRESS PERIOD     3
      4 TOTAL ITERATIONS
     1 CALLS TO GCG PACKAGE FOR TRANSPORT TIME STEP   185 IN FLOW TIME STEP     1 STRESS PERIOD     3
      4 TOTAL ITERATIONS
     1 CALLS TO GCG PACKAGE FOR TRANSPORT TIME STEP   186 IN FLOW TIME STEP     1 STRESS PERIOD     3
      4 TOTAL ITERATIONS
     1 CALLS TO GCG PACKAGE FOR TRANSPORT TIME STEP   187 IN FLOW TIME STEP     1 STRESS PERIOD     3
      4 TOTAL ITERATIONS
     1 CALLS TO GCG PACKAGE FOR TRANSPORT TIME STEP   188 IN FLOW TIME STEP     1 STRESS PERIOD     3
      4 TOTAL ITERATIONS
     1 CALLS TO GCG PACKAGE FOR TRANSPORT TIME STEP   189 IN FLOW TIME STEP     1 STRESS PERIOD     3
      4 TOTAL ITERATIONS
     1 CALLS TO GCG PACKAGE FOR TRANSPORT TIME STEP   190 IN FLOW TIME STEP     1 STRESS PERIOD     3
      4 TOTAL ITERATIONS
     1 CALLS TO GCG PACKAGE FOR TRANSPORT TIME STEP   191 IN FLOW TIME STEP     1 STRESS PERIOD     3
      4 TOTAL ITERATIONS
     1 CALLS TO GCG PACKAGE FOR TRANSPORT TIME STEP   192 IN FLOW TIME STEP     1 STRESS PERIOD     3
      4 TOTAL ITERATIONS
     1 CALLS TO GCG PACKAGE FOR TRANSPORT TIME STEP   193 IN FLOW TIME STEP     1 STRESS PERIOD     3
      4 TOTAL ITERATIONS
     1 CALLS TO GCG PACKAGE FOR TRANSPORT TIME STEP   194 IN FLOW TIME STEP     1 STRESS PERIOD     3
      4 TOTAL ITERATIONS
     1 CALLS TO GCG PACKAGE FOR TRANSPORT TIME STEP   195 IN FLOW TIME STEP     1 STRESS PERIOD     3
      4 TOTAL ITERATIONS
     1 CALLS TO GCG PACKAGE FOR TRANSPORT TIME STEP   196 IN FLOW TIME STEP     1 STRESS PERIOD     3
      4 TOTAL ITERATIONS
     1 CALLS TO GCG PACKAGE FOR TRANSPORT TIME STEP   197 IN FLOW TIME STEP     1 STRESS PERIOD     3
      4 TOTAL ITERATIONS
     1 CALLS TO GCG PACKAGE FOR TRANSPORT TIME STEP   198 IN FLOW TIME STEP     1 STRESS PERIOD     3
      4 TOTAL ITERATIONS
     1 CALLS TO GCG PACKAGE FOR TRANSPORT TIME STEP   199 IN FLOW TIME STEP     1 STRESS PERIOD     3
      4 TOTAL ITERATIONS
     1 CALLS TO GCG PACKAGE FOR TRANSPORT TIME STEP   200 IN FLOW TIME STEP     1 STRESS PERIOD     3
      4 TOTAL ITERATIONS
     1 CALLS TO GCG PACKAGE FOR TRANSPORT TIME STEP   201 IN FLOW TIME STEP     1 STRESS PERIOD     3
      4 TOTAL ITERATIONS
     1 CALLS TO GCG PACKAGE FOR TRANSPORT TIME STEP   202 IN FLOW TIME STEP     1 STRESS PERIOD     3
      4 TOTAL ITERATIONS
     1 CALLS TO GCG PACKAGE FOR TRANSPORT TIME STEP   203 IN FLOW TIME STEP     1 STRESS PERIOD     3
      4 TOTAL ITERATIONS
     1 CALLS TO GCG PACKAGE FOR TRANSPORT TIME STEP   204 IN FLOW TIME STEP     1 STRESS PERIOD     3
      4 TOTAL ITERATIONS
     1 CALLS TO GCG PACKAGE FOR TRANSPORT TIME STEP   205 IN FLOW TIME STEP     1 STRESS PERIOD     3
      4 TOTAL ITERATIONS
     1 CALLS TO GCG PACKAGE FOR TRANSPORT TIME STEP   206 IN FLOW TIME STEP     1 STRESS PERIOD     3
      4 TOTAL ITERATIONS
     1 CALLS TO GCG PACKAGE FOR TRANSPORT TIME STEP   207 IN FLOW TIME STEP     1 STRESS PERIOD     3
      4 TOTAL ITERATIONS
     1 CALLS TO GCG PACKAGE FOR TRANSPORT TIME STEP   208 IN FLOW TIME STEP     1 STRESS PERIOD     3
      4 TOTAL ITERATIONS
     1 CALLS TO GCG PACKAGE FOR TRANSPORT TIME STEP   209 IN FLOW TIME STEP     1 STRESS PERIOD     3
      4 TOTAL ITERATIONS
     1 CALLS TO GCG PACKAGE FOR TRANSPORT TIME STEP   210 IN FLOW TIME STEP     1 STRESS PERIOD     3
      4 TOTAL ITERATIONS
     1 CALLS TO GCG PACKAGE FOR TRANSPORT TIME STEP   211 IN FLOW TIME STEP     1 STRESS PERIOD     3
      4 TOTAL ITERATIONS
     1 CALLS TO GCG PACKAGE FOR TRANSPORT TIME STEP   212 IN FLOW TIME STEP     1 STRESS PERIOD     3
      4 TOTAL ITERATIONS
     1 CALLS TO GCG PACKAGE FOR TRANSPORT TIME STEP   213 IN FLOW TIME STEP     1 STRESS PERIOD     3
      4 TOTAL ITERATIONS
     1 CALLS TO GCG PACKAGE FOR TRANSPORT TIME STEP   214 IN FLOW TIME STEP     1 STRESS PERIOD     3
      4 TOTAL ITERATIONS
     1 CALLS TO GCG PACKAGE FOR TRANSPORT TIME STEP   215 IN FLOW TIME STEP     1 STRESS PERIOD     3
      4 TOTAL ITERATIONS
     1 CALLS TO GCG PACKAGE FOR TRANSPORT TIME STEP   216 IN FLOW TIME STEP     1 STRESS PERIOD     3
      4 TOTAL ITERATIONS
     1 CALLS TO GCG PACKAGE FOR TRANSPORT TIME STEP   217 IN FLOW TIME STEP     1 STRESS PERIOD     3
      4 TOTAL ITERATIONS
     1 CALLS TO GCG PACKAGE FOR TRANSPORT TIME STEP   218 IN FLOW TIME STEP     1 STRESS PERIOD     3
      4 TOTAL ITERATIONS
     1 CALLS TO GCG PACKAGE FOR TRANSPORT TIME STEP   219 IN FLOW TIME STEP     1 STRESS PERIOD     3
      4 TOTAL ITERATIONS
     1 CALLS TO GCG PACKAGE FOR TRANSPORT TIME STEP   220 IN FLOW TIME STEP     1 STRESS PERIOD     3
      4 TOTAL ITERATIONS
     1 CALLS TO GCG PACKAGE FOR TRANSPORT TIME STEP   221 IN FLOW TIME STEP     1 STRESS PERIOD     3
      4 TOTAL ITERATIONS
     1 CALLS TO GCG PACKAGE FOR TRANSPORT TIME STEP   222 IN FLOW TIME STEP     1 STRESS PERIOD     3
      4 TOTAL ITERATIONS
     1 CALLS TO GCG PACKAGE FOR TRANSPORT TIME STEP   223 IN FLOW TIME STEP     1 STRESS PERIOD     3
      4 TOTAL ITERATIONS
     1 CALLS TO GCG PACKAGE FOR TRANSPORT TIME STEP   224 IN FLOW TIME STEP     1 STRESS PERIOD     3
      4 TOTAL ITERATIONS
     1 CALLS TO GCG PACKAGE FOR TRANSPORT TIME STEP   225 IN FLOW TIME STEP     1 STRESS PERIOD     3
      4 TOTAL ITERATIONS
     1 CALLS TO GCG PACKAGE FOR TRANSPORT TIME STEP   226 IN FLOW TIME STEP     1 STRESS PERIOD     3
      4 TOTAL ITERATIONS
     1 CALLS TO GCG PACKAGE FOR TRANSPORT TIME STEP   227 IN FLOW TIME STEP     1 STRESS PERIOD     3
      4 TOTAL ITERATIONS
     1 CALLS TO GCG PACKAGE FOR TRANSPORT TIME STEP   228 IN FLOW TIME STEP     1 STRESS PERIOD     3
      4 TOTAL ITERATIONS
     1 CALLS TO GCG PACKAGE FOR TRANSPORT TIME STEP   229 IN FLOW TIME STEP     1 STRESS PERIOD     3
      3 TOTAL ITERATIONS



 >>>>>>>>>>>>>>>>>>>>>>>>>>>>>>>>>>>>>>>>>>>>>>>>>>>>>>>FOR COMPONENT NO. 01<<<<<<<<<<<<<<<<<<<<<<<<<<<<<<<<<<<<<<<<<<<<<<<<<<<<<<<


                                            -------------------------------------------
                                                      TRANSPORT STEP NO.  229
                                            -------------------------------------------

 TOTAL ELAPSED TIME SINCE BEGINNING OF SIMULATION =   36.08000    D   
 .....................................................................

                     CUMULATIVE MASS BUDGETS AT END OF TRANSPORT STEP  229, TIME STEP    1, STRESS PERIOD    3
                     -----------------------------------------------------------------------------------------

                                                             IN                           OUT
                                                      ----------------             ----------------
                               CONSTANT CONCENTRATION:    0.000000                    0.000000    
                                        CONSTANT HEAD:    0.000000                  -0.1635928E-01
                                                WELLS:   0.2226680E-01                0.000000    
                               MASS STOR (FLOW MODEL):    0.000000                    0.000000    
                                MASS STORAGE (SOLUTE):   0.1838029E-04              -0.5926426E-02
                            ---------------------------------------------------------------------------
                                              [TOTAL]:   0.2228518E-01 KG           -0.2228571E-01 KG  

                                                          NET (IN - OUT):  -0.5289912E-06
                                                   DISCREPANCY (PERCENT):  -0.2373708E-02
     1 CALLS TO GCG PACKAGE FOR TRANSPORT TIME STEP   230 IN FLOW TIME STEP     1 STRESS PERIOD     3
      4 TOTAL ITERATIONS
     1 CALLS TO GCG PACKAGE FOR TRANSPORT TIME STEP   231 IN FLOW TIME STEP     1 STRESS PERIOD     3
      4 TOTAL ITERATIONS
     1 CALLS TO GCG PACKAGE FOR TRANSPORT TIME STEP   232 IN FLOW TIME STEP     1 STRESS PERIOD     3
      4 TOTAL ITERATIONS
     1 CALLS TO GCG PACKAGE FOR TRANSPORT TIME STEP   233 IN FLOW TIME STEP     1 STRESS PERIOD     3
      4 TOTAL ITERATIONS
     1 CALLS TO GCG PACKAGE FOR TRANSPORT TIME STEP   234 IN FLOW TIME STEP     1 STRESS PERIOD     3
      4 TOTAL ITERATIONS
     1 CALLS TO GCG PACKAGE FOR TRANSPORT TIME STEP   235 IN FLOW TIME STEP     1 STRESS PERIOD     3
      4 TOTAL ITERATIONS
     1 CALLS TO GCG PACKAGE FOR TRANSPORT TIME STEP   236 IN FLOW TIME STEP     1 STRESS PERIOD     3
      4 TOTAL ITERATIONS
     1 CALLS TO GCG PACKAGE FOR TRANSPORT TIME STEP   237 IN FLOW TIME STEP     1 STRESS PERIOD     3
      4 TOTAL ITERATIONS
     1 CALLS TO GCG PACKAGE FOR TRANSPORT TIME STEP   238 IN FLOW TIME STEP     1 STRESS PERIOD     3
      4 TOTAL ITERATIONS
     1 CALLS TO GCG PACKAGE FOR TRANSPORT TIME STEP   239 IN FLOW TIME STEP     1 STRESS PERIOD     3
      4 TOTAL ITERATIONS
     1 CALLS TO GCG PACKAGE FOR TRANSPORT TIME STEP   240 IN FLOW TIME STEP     1 STRESS PERIOD     3
      4 TOTAL ITERATIONS
     1 CALLS TO GCG PACKAGE FOR TRANSPORT TIME STEP   241 IN FLOW TIME STEP     1 STRESS PERIOD     3
      4 TOTAL ITERATIONS
     1 CALLS TO GCG PACKAGE FOR TRANSPORT TIME STEP   242 IN FLOW TIME STEP     1 STRESS PERIOD     3
      4 TOTAL ITERATIONS
     1 CALLS TO GCG PACKAGE FOR TRANSPORT TIME STEP   243 IN FLOW TIME STEP     1 STRESS PERIOD     3
      4 TOTAL ITERATIONS
     1 CALLS TO GCG PACKAGE FOR TRANSPORT TIME STEP   244 IN FLOW TIME STEP     1 STRESS PERIOD     3
      4 TOTAL ITERATIONS
     1 CALLS TO GCG PACKAGE FOR TRANSPORT TIME STEP   245 IN FLOW TIME STEP     1 STRESS PERIOD     3
      4 TOTAL ITERATIONS
     1 CALLS TO GCG PACKAGE FOR TRANSPORT TIME STEP   246 IN FLOW TIME STEP     1 STRESS PERIOD     3
      4 TOTAL ITERATIONS
     1 CALLS TO GCG PACKAGE FOR TRANSPORT TIME STEP   247 IN FLOW TIME STEP     1 STRESS PERIOD     3
      4 TOTAL ITERATIONS
     1 CALLS TO GCG PACKAGE FOR TRANSPORT TIME STEP   248 IN FLOW TIME STEP     1 STRESS PERIOD     3
      4 TOTAL ITERATIONS
     1 CALLS TO GCG PACKAGE FOR TRANSPORT TIME STEP   249 IN FLOW TIME STEP     1 STRESS PERIOD     3
      4 TOTAL ITERATIONS
     1 CALLS TO GCG PACKAGE FOR TRANSPORT TIME STEP   250 IN FLOW TIME STEP     1 STRESS PERIOD     3
      4 TOTAL ITERATIONS
     1 CALLS TO GCG PACKAGE FOR TRANSPORT TIME STEP   251 IN FLOW TIME STEP     1 STRESS PERIOD     3
      4 TOTAL ITERATIONS
     1 CALLS TO GCG PACKAGE FOR TRANSPORT TIME STEP   252 IN FLOW TIME STEP     1 STRESS PERIOD     3
      4 TOTAL ITERATIONS
     1 CALLS TO GCG PACKAGE FOR TRANSPORT TIME STEP   253 IN FLOW TIME STEP     1 STRESS PERIOD     3
      4 TOTAL ITERATIONS
     1 CALLS TO GCG PACKAGE FOR TRANSPORT TIME STEP   254 IN FLOW TIME STEP     1 STRESS PERIOD     3
      4 TOTAL ITERATIONS
     1 CALLS TO GCG PACKAGE FOR TRANSPORT TIME STEP   255 IN FLOW TIME STEP     1 STRESS PERIOD     3
      4 TOTAL ITERATIONS
     1 CALLS TO GCG PACKAGE FOR TRANSPORT TIME STEP   256 IN FLOW TIME STEP     1 STRESS PERIOD     3
      4 TOTAL ITERATIONS
     1 CALLS TO GCG PACKAGE FOR TRANSPORT TIME STEP   257 IN FLOW TIME STEP     1 STRESS PERIOD     3
      4 TOTAL ITERATIONS
     1 CALLS TO GCG PACKAGE FOR TRANSPORT TIME STEP   258 IN FLOW TIME STEP     1 STRESS PERIOD     3
      4 TOTAL ITERATIONS
     1 CALLS TO GCG PACKAGE FOR TRANSPORT TIME STEP   259 IN FLOW TIME STEP     1 STRESS PERIOD     3
      4 TOTAL ITERATIONS
     1 CALLS TO GCG PACKAGE FOR TRANSPORT TIME STEP   260 IN FLOW TIME STEP     1 STRESS PERIOD     3
      4 TOTAL ITERATIONS
     1 CALLS TO GCG PACKAGE FOR TRANSPORT TIME STEP   261 IN FLOW TIME STEP     1 STRESS PERIOD     3
      4 TOTAL ITERATIONS
     1 CALLS TO GCG PACKAGE FOR TRANSPORT TIME STEP   262 IN FLOW TIME STEP     1 STRESS PERIOD     3
      4 TOTAL ITERATIONS
     1 CALLS TO GCG PACKAGE FOR TRANSPORT TIME STEP   263 IN FLOW TIME STEP     1 STRESS PERIOD     3
      4 TOTAL ITERATIONS
     1 CALLS TO GCG PACKAGE FOR TRANSPORT TIME STEP   264 IN FLOW TIME STEP     1 STRESS PERIOD     3
      4 TOTAL ITERATIONS
     1 CALLS TO GCG PACKAGE FOR TRANSPORT TIME STEP   265 IN FLOW TIME STEP     1 STRESS PERIOD     3
      4 TOTAL ITERATIONS
     1 CALLS TO GCG PACKAGE FOR TRANSPORT TIME STEP   266 IN FLOW TIME STEP     1 STRESS PERIOD     3
      4 TOTAL ITERATIONS
     1 CALLS TO GCG PACKAGE FOR TRANSPORT TIME STEP   267 IN FLOW TIME STEP     1 STRESS PERIOD     3
      4 TOTAL ITERATIONS
     1 CALLS TO GCG PACKAGE FOR TRANSPORT TIME STEP   268 IN FLOW TIME STEP     1 STRESS PERIOD     3
      4 TOTAL ITERATIONS
     1 CALLS TO GCG PACKAGE FOR TRANSPORT TIME STEP   269 IN FLOW TIME STEP     1 STRESS PERIOD     3
      4 TOTAL ITERATIONS
     1 CALLS TO GCG PACKAGE FOR TRANSPORT TIME STEP   270 IN FLOW TIME STEP     1 STRESS PERIOD     3
      4 TOTAL ITERATIONS
     1 CALLS TO GCG PACKAGE FOR TRANSPORT TIME STEP   271 IN FLOW TIME STEP     1 STRESS PERIOD     3
      4 TOTAL ITERATIONS
     1 CALLS TO GCG PACKAGE FOR TRANSPORT TIME STEP   272 IN FLOW TIME STEP     1 STRESS PERIOD     3
      4 TOTAL ITERATIONS
     1 CALLS TO GCG PACKAGE FOR TRANSPORT TIME STEP   273 IN FLOW TIME STEP     1 STRESS PERIOD     3
      4 TOTAL ITERATIONS
     1 CALLS TO GCG PACKAGE FOR TRANSPORT TIME STEP   274 IN FLOW TIME STEP     1 STRESS PERIOD     3
      4 TOTAL ITERATIONS
     1 CALLS TO GCG PACKAGE FOR TRANSPORT TIME STEP   275 IN FLOW TIME STEP     1 STRESS PERIOD     3
      3 TOTAL ITERATIONS



 >>>>>>>>>>>>>>>>>>>>>>>>>>>>>>>>>>>>>>>>>>>>>>>>>>>>>>>FOR COMPONENT NO. 01<<<<<<<<<<<<<<<<<<<<<<<<<<<<<<<<<<<<<<<<<<<<<<<<<<<<<<<


                                            -------------------------------------------
                                                      TRANSPORT STEP NO.  275
                                            -------------------------------------------

 TOTAL ELAPSED TIME SINCE BEGINNING OF SIMULATION =   36.90000    D   
 .....................................................................

                     CUMULATIVE MASS BUDGETS AT END OF TRANSPORT STEP  275, TIME STEP    1, STRESS PERIOD    3
                     -----------------------------------------------------------------------------------------

                                                             IN                           OUT
                                                      ----------------             ----------------
                               CONSTANT CONCENTRATION:    0.000000                    0.000000    
                                        CONSTANT HEAD:    0.000000                  -0.1685617E-01
                                                WELLS:   0.2277286E-01                0.000000    
                               MASS STOR (FLOW MODEL):    0.000000                    0.000000    
                                MASS STORAGE (SOLUTE):   0.1851777E-04              -0.5935706E-02
                            ---------------------------------------------------------------------------
                                              [TOTAL]:   0.2279138E-01 KG           -0.2279187E-01 KG  

                                                          NET (IN - OUT):  -0.4973263E-06
                                                   DISCREPANCY (PERCENT):  -0.2182057E-02
     1 CALLS TO GCG PACKAGE FOR TRANSPORT TIME STEP   276 IN FLOW TIME STEP     1 STRESS PERIOD     3
      4 TOTAL ITERATIONS
     1 CALLS TO GCG PACKAGE FOR TRANSPORT TIME STEP   277 IN FLOW TIME STEP     1 STRESS PERIOD     3
      4 TOTAL ITERATIONS
     1 CALLS TO GCG PACKAGE FOR TRANSPORT TIME STEP   278 IN FLOW TIME STEP     1 STRESS PERIOD     3
      4 TOTAL ITERATIONS
     1 CALLS TO GCG PACKAGE FOR TRANSPORT TIME STEP   279 IN FLOW TIME STEP     1 STRESS PERIOD     3
      4 TOTAL ITERATIONS
     1 CALLS TO GCG PACKAGE FOR TRANSPORT TIME STEP   280 IN FLOW TIME STEP     1 STRESS PERIOD     3
      4 TOTAL ITERATIONS
     1 CALLS TO GCG PACKAGE FOR TRANSPORT TIME STEP   281 IN FLOW TIME STEP     1 STRESS PERIOD     3
      4 TOTAL ITERATIONS
     1 CALLS TO GCG PACKAGE FOR TRANSPORT TIME STEP   282 IN FLOW TIME STEP     1 STRESS PERIOD     3
      4 TOTAL ITERATIONS
     1 CALLS TO GCG PACKAGE FOR TRANSPORT TIME STEP   283 IN FLOW TIME STEP     1 STRESS PERIOD     3
      4 TOTAL ITERATIONS
     1 CALLS TO GCG PACKAGE FOR TRANSPORT TIME STEP   284 IN FLOW TIME STEP     1 STRESS PERIOD     3
      4 TOTAL ITERATIONS
     1 CALLS TO GCG PACKAGE FOR TRANSPORT TIME STEP   285 IN FLOW TIME STEP     1 STRESS PERIOD     3
      4 TOTAL ITERATIONS
     1 CALLS TO GCG PACKAGE FOR TRANSPORT TIME STEP   286 IN FLOW TIME STEP     1 STRESS PERIOD     3
      4 TOTAL ITERATIONS
     1 CALLS TO GCG PACKAGE FOR TRANSPORT TIME STEP   287 IN FLOW TIME STEP     1 STRESS PERIOD     3
      4 TOTAL ITERATIONS
     1 CALLS TO GCG PACKAGE FOR TRANSPORT TIME STEP   288 IN FLOW TIME STEP     1 STRESS PERIOD     3
      4 TOTAL ITERATIONS
     1 CALLS TO GCG PACKAGE FOR TRANSPORT TIME STEP   289 IN FLOW TIME STEP     1 STRESS PERIOD     3
      4 TOTAL ITERATIONS
     1 CALLS TO GCG PACKAGE FOR TRANSPORT TIME STEP   290 IN FLOW TIME STEP     1 STRESS PERIOD     3
      4 TOTAL ITERATIONS
     1 CALLS TO GCG PACKAGE FOR TRANSPORT TIME STEP   291 IN FLOW TIME STEP     1 STRESS PERIOD     3
      4 TOTAL ITERATIONS
     1 CALLS TO GCG PACKAGE FOR TRANSPORT TIME STEP   292 IN FLOW TIME STEP     1 STRESS PERIOD     3
      4 TOTAL ITERATIONS
     1 CALLS TO GCG PACKAGE FOR TRANSPORT TIME STEP   293 IN FLOW TIME STEP     1 STRESS PERIOD     3
      4 TOTAL ITERATIONS
     1 CALLS TO GCG PACKAGE FOR TRANSPORT TIME STEP   294 IN FLOW TIME STEP     1 STRESS PERIOD     3
      4 TOTAL ITERATIONS
     1 CALLS TO GCG PACKAGE FOR TRANSPORT TIME STEP   295 IN FLOW TIME STEP     1 STRESS PERIOD     3
      4 TOTAL ITERATIONS
     1 CALLS TO GCG PACKAGE FOR TRANSPORT TIME STEP   296 IN FLOW TIME STEP     1 STRESS PERIOD     3
      4 TOTAL ITERATIONS
     1 CALLS TO GCG PACKAGE FOR TRANSPORT TIME STEP   297 IN FLOW TIME STEP     1 STRESS PERIOD     3
      4 TOTAL ITERATIONS
     1 CALLS TO GCG PACKAGE FOR TRANSPORT TIME STEP   298 IN FLOW TIME STEP     1 STRESS PERIOD     3
      4 TOTAL ITERATIONS
     1 CALLS TO GCG PACKAGE FOR TRANSPORT TIME STEP   299 IN FLOW TIME STEP     1 STRESS PERIOD     3
      4 TOTAL ITERATIONS
     1 CALLS TO GCG PACKAGE FOR TRANSPORT TIME STEP   300 IN FLOW TIME STEP     1 STRESS PERIOD     3
      4 TOTAL ITERATIONS
     1 CALLS TO GCG PACKAGE FOR TRANSPORT TIME STEP   301 IN FLOW TIME STEP     1 STRESS PERIOD     3
      4 TOTAL ITERATIONS
     1 CALLS TO GCG PACKAGE FOR TRANSPORT TIME STEP   302 IN FLOW TIME STEP     1 STRESS PERIOD     3
      4 TOTAL ITERATIONS
     1 CALLS TO GCG PACKAGE FOR TRANSPORT TIME STEP   303 IN FLOW TIME STEP     1 STRESS PERIOD     3
      4 TOTAL ITERATIONS
     1 CALLS TO GCG PACKAGE FOR TRANSPORT TIME STEP   304 IN FLOW TIME STEP     1 STRESS PERIOD     3
      4 TOTAL ITERATIONS
     1 CALLS TO GCG PACKAGE FOR TRANSPORT TIME STEP   305 IN FLOW TIME STEP     1 STRESS PERIOD     3
      4 TOTAL ITERATIONS
     1 CALLS TO GCG PACKAGE FOR TRANSPORT TIME STEP   306 IN FLOW TIME STEP     1 STRESS PERIOD     3
      4 TOTAL ITERATIONS
     1 CALLS TO GCG PACKAGE FOR TRANSPORT TIME STEP   307 IN FLOW TIME STEP     1 STRESS PERIOD     3
      4 TOTAL ITERATIONS
     1 CALLS TO GCG PACKAGE FOR TRANSPORT TIME STEP   308 IN FLOW TIME STEP     1 STRESS PERIOD     3
      4 TOTAL ITERATIONS
     1 CALLS TO GCG PACKAGE FOR TRANSPORT TIME STEP   309 IN FLOW TIME STEP     1 STRESS PERIOD     3
      4 TOTAL ITERATIONS
     1 CALLS TO GCG PACKAGE FOR TRANSPORT TIME STEP   310 IN FLOW TIME STEP     1 STRESS PERIOD     3
      4 TOTAL ITERATIONS
     1 CALLS TO GCG PACKAGE FOR TRANSPORT TIME STEP   311 IN FLOW TIME STEP     1 STRESS PERIOD     3
      4 TOTAL ITERATIONS
     1 CALLS TO GCG PACKAGE FOR TRANSPORT TIME STEP   312 IN FLOW TIME STEP     1 STRESS PERIOD     3
      4 TOTAL ITERATIONS
     1 CALLS TO GCG PACKAGE FOR TRANSPORT TIME STEP   313 IN FLOW TIME STEP     1 STRESS PERIOD     3
      4 TOTAL ITERATIONS
     1 CALLS TO GCG PACKAGE FOR TRANSPORT TIME STEP   314 IN FLOW TIME STEP     1 STRESS PERIOD     3
      4 TOTAL ITERATIONS
     1 CALLS TO GCG PACKAGE FOR TRANSPORT TIME STEP   315 IN FLOW TIME STEP     1 STRESS PERIOD     3
      4 TOTAL ITERATIONS
     1 CALLS TO GCG PACKAGE FOR TRANSPORT TIME STEP   316 IN FLOW TIME STEP     1 STRESS PERIOD     3
      4 TOTAL ITERATIONS
     1 CALLS TO GCG PACKAGE FOR TRANSPORT TIME STEP   317 IN FLOW TIME STEP     1 STRESS PERIOD     3
      4 TOTAL ITERATIONS
     1 CALLS TO GCG PACKAGE FOR TRANSPORT TIME STEP   318 IN FLOW TIME STEP     1 STRESS PERIOD     3
      4 TOTAL ITERATIONS
     1 CALLS TO GCG PACKAGE FOR TRANSPORT TIME STEP   319 IN FLOW TIME STEP     1 STRESS PERIOD     3
      4 TOTAL ITERATIONS
     1 CALLS TO GCG PACKAGE FOR TRANSPORT TIME STEP   320 IN FLOW TIME STEP     1 STRESS PERIOD     3
      4 TOTAL ITERATIONS
     1 CALLS TO GCG PACKAGE FOR TRANSPORT TIME STEP   321 IN FLOW TIME STEP     1 STRESS PERIOD     3
      3 TOTAL ITERATIONS



 >>>>>>>>>>>>>>>>>>>>>>>>>>>>>>>>>>>>>>>>>>>>>>>>>>>>>>>FOR COMPONENT NO. 01<<<<<<<<<<<<<<<<<<<<<<<<<<<<<<<<<<<<<<<<<<<<<<<<<<<<<<<


                                            -------------------------------------------
                                                      TRANSPORT STEP NO.  321
                                            -------------------------------------------

 TOTAL ELAPSED TIME SINCE BEGINNING OF SIMULATION =   37.72000    D   
 .....................................................................

                     CUMULATIVE MASS BUDGETS AT END OF TRANSPORT STEP  321, TIME STEP    1, STRESS PERIOD    3
                     -----------------------------------------------------------------------------------------

                                                             IN                           OUT
                                                      ----------------             ----------------
                               CONSTANT CONCENTRATION:    0.000000                    0.000000    
                                        CONSTANT HEAD:    0.000000                  -0.1735356E-01
                                                WELLS:   0.2327892E-01                0.000000    
                               MASS STOR (FLOW MODEL):    0.000000                    0.000000    
                                MASS STORAGE (SOLUTE):   0.1864194E-04              -0.5944472E-02
                            ---------------------------------------------------------------------------
                                              [TOTAL]:   0.2329756E-01 KG           -0.2329803E-01 KG  

                                                          NET (IN - OUT):  -0.4675239E-06
                                                   DISCREPANCY (PERCENT):  -0.2006731E-02
     1 CALLS TO GCG PACKAGE FOR TRANSPORT TIME STEP   322 IN FLOW TIME STEP     1 STRESS PERIOD     3
      4 TOTAL ITERATIONS
     1 CALLS TO GCG PACKAGE FOR TRANSPORT TIME STEP   323 IN FLOW TIME STEP     1 STRESS PERIOD     3
      4 TOTAL ITERATIONS
     1 CALLS TO GCG PACKAGE FOR TRANSPORT TIME STEP   324 IN FLOW TIME STEP     1 STRESS PERIOD     3
      4 TOTAL ITERATIONS
     1 CALLS TO GCG PACKAGE FOR TRANSPORT TIME STEP   325 IN FLOW TIME STEP     1 STRESS PERIOD     3
      4 TOTAL ITERATIONS
     1 CALLS TO GCG PACKAGE FOR TRANSPORT TIME STEP   326 IN FLOW TIME STEP     1 STRESS PERIOD     3
      4 TOTAL ITERATIONS
     1 CALLS TO GCG PACKAGE FOR TRANSPORT TIME STEP   327 IN FLOW TIME STEP     1 STRESS PERIOD     3
      4 TOTAL ITERATIONS
     1 CALLS TO GCG PACKAGE FOR TRANSPORT TIME STEP   328 IN FLOW TIME STEP     1 STRESS PERIOD     3
      4 TOTAL ITERATIONS
     1 CALLS TO GCG PACKAGE FOR TRANSPORT TIME STEP   329 IN FLOW TIME STEP     1 STRESS PERIOD     3
      4 TOTAL ITERATIONS
     1 CALLS TO GCG PACKAGE FOR TRANSPORT TIME STEP   330 IN FLOW TIME STEP     1 STRESS PERIOD     3
      4 TOTAL ITERATIONS
     1 CALLS TO GCG PACKAGE FOR TRANSPORT TIME STEP   331 IN FLOW TIME STEP     1 STRESS PERIOD     3
      4 TOTAL ITERATIONS
     1 CALLS TO GCG PACKAGE FOR TRANSPORT TIME STEP   332 IN FLOW TIME STEP     1 STRESS PERIOD     3
      4 TOTAL ITERATIONS
     1 CALLS TO GCG PACKAGE FOR TRANSPORT TIME STEP   333 IN FLOW TIME STEP     1 STRESS PERIOD     3
      4 TOTAL ITERATIONS
     1 CALLS TO GCG PACKAGE FOR TRANSPORT TIME STEP   334 IN FLOW TIME STEP     1 STRESS PERIOD     3
      4 TOTAL ITERATIONS
     1 CALLS TO GCG PACKAGE FOR TRANSPORT TIME STEP   335 IN FLOW TIME STEP     1 STRESS PERIOD     3
      4 TOTAL ITERATIONS
     1 CALLS TO GCG PACKAGE FOR TRANSPORT TIME STEP   336 IN FLOW TIME STEP     1 STRESS PERIOD     3
      4 TOTAL ITERATIONS
     1 CALLS TO GCG PACKAGE FOR TRANSPORT TIME STEP   337 IN FLOW TIME STEP     1 STRESS PERIOD     3
      4 TOTAL ITERATIONS
     1 CALLS TO GCG PACKAGE FOR TRANSPORT TIME STEP   338 IN FLOW TIME STEP     1 STRESS PERIOD     3
      4 TOTAL ITERATIONS
     1 CALLS TO GCG PACKAGE FOR TRANSPORT TIME STEP   339 IN FLOW TIME STEP     1 STRESS PERIOD     3
      4 TOTAL ITERATIONS
     1 CALLS TO GCG PACKAGE FOR TRANSPORT TIME STEP   340 IN FLOW TIME STEP     1 STRESS PERIOD     3
      4 TOTAL ITERATIONS
     1 CALLS TO GCG PACKAGE FOR TRANSPORT TIME STEP   341 IN FLOW TIME STEP     1 STRESS PERIOD     3
      4 TOTAL ITERATIONS
     1 CALLS TO GCG PACKAGE FOR TRANSPORT TIME STEP   342 IN FLOW TIME STEP     1 STRESS PERIOD     3
      4 TOTAL ITERATIONS
     1 CALLS TO GCG PACKAGE FOR TRANSPORT TIME STEP   343 IN FLOW TIME STEP     1 STRESS PERIOD     3
      4 TOTAL ITERATIONS
     1 CALLS TO GCG PACKAGE FOR TRANSPORT TIME STEP   344 IN FLOW TIME STEP     1 STRESS PERIOD     3
      4 TOTAL ITERATIONS
     1 CALLS TO GCG PACKAGE FOR TRANSPORT TIME STEP   345 IN FLOW TIME STEP     1 STRESS PERIOD     3
      4 TOTAL ITERATIONS
     1 CALLS TO GCG PACKAGE FOR TRANSPORT TIME STEP   346 IN FLOW TIME STEP     1 STRESS PERIOD     3
      4 TOTAL ITERATIONS
     1 CALLS TO GCG PACKAGE FOR TRANSPORT TIME STEP   347 IN FLOW TIME STEP     1 STRESS PERIOD     3
      4 TOTAL ITERATIONS
     1 CALLS TO GCG PACKAGE FOR TRANSPORT TIME STEP   348 IN FLOW TIME STEP     1 STRESS PERIOD     3
      4 TOTAL ITERATIONS
     1 CALLS TO GCG PACKAGE FOR TRANSPORT TIME STEP   349 IN FLOW TIME STEP     1 STRESS PERIOD     3
      4 TOTAL ITERATIONS
     1 CALLS TO GCG PACKAGE FOR TRANSPORT TIME STEP   350 IN FLOW TIME STEP     1 STRESS PERIOD     3
      4 TOTAL ITERATIONS
     1 CALLS TO GCG PACKAGE FOR TRANSPORT TIME STEP   351 IN FLOW TIME STEP     1 STRESS PERIOD     3
      4 TOTAL ITERATIONS
     1 CALLS TO GCG PACKAGE FOR TRANSPORT TIME STEP   352 IN FLOW TIME STEP     1 STRESS PERIOD     3
      4 TOTAL ITERATIONS
     1 CALLS TO GCG PACKAGE FOR TRANSPORT TIME STEP   353 IN FLOW TIME STEP     1 STRESS PERIOD     3
      4 TOTAL ITERATIONS
     1 CALLS TO GCG PACKAGE FOR TRANSPORT TIME STEP   354 IN FLOW TIME STEP     1 STRESS PERIOD     3
      4 TOTAL ITERATIONS
     1 CALLS TO GCG PACKAGE FOR TRANSPORT TIME STEP   355 IN FLOW TIME STEP     1 STRESS PERIOD     3
      4 TOTAL ITERATIONS
     1 CALLS TO GCG PACKAGE FOR TRANSPORT TIME STEP   356 IN FLOW TIME STEP     1 STRESS PERIOD     3
      4 TOTAL ITERATIONS
     1 CALLS TO GCG PACKAGE FOR TRANSPORT TIME STEP   357 IN FLOW TIME STEP     1 STRESS PERIOD     3
      4 TOTAL ITERATIONS
     1 CALLS TO GCG PACKAGE FOR TRANSPORT TIME STEP   358 IN FLOW TIME STEP     1 STRESS PERIOD     3
      4 TOTAL ITERATIONS
     1 CALLS TO GCG PACKAGE FOR TRANSPORT TIME STEP   359 IN FLOW TIME STEP     1 STRESS PERIOD     3
      4 TOTAL ITERATIONS
     1 CALLS TO GCG PACKAGE FOR TRANSPORT TIME STEP   360 IN FLOW TIME STEP     1 STRESS PERIOD     3
      4 TOTAL ITERATIONS
     1 CALLS TO GCG PACKAGE FOR TRANSPORT TIME STEP   361 IN FLOW TIME STEP     1 STRESS PERIOD     3
      4 TOTAL ITERATIONS
     1 CALLS TO GCG PACKAGE FOR TRANSPORT TIME STEP   362 IN FLOW TIME STEP     1 STRESS PERIOD     3
      4 TOTAL ITERATIONS
     1 CALLS TO GCG PACKAGE FOR TRANSPORT TIME STEP   363 IN FLOW TIME STEP     1 STRESS PERIOD     3
      4 TOTAL ITERATIONS
     1 CALLS TO GCG PACKAGE FOR TRANSPORT TIME STEP   364 IN FLOW TIME STEP     1 STRESS PERIOD     3
      4 TOTAL ITERATIONS
     1 CALLS TO GCG PACKAGE FOR TRANSPORT TIME STEP   365 IN FLOW TIME STEP     1 STRESS PERIOD     3
      4 TOTAL ITERATIONS
     1 CALLS TO GCG PACKAGE FOR TRANSPORT TIME STEP   366 IN FLOW TIME STEP     1 STRESS PERIOD     3
      4 TOTAL ITERATIONS
     1 CALLS TO GCG PACKAGE FOR TRANSPORT TIME STEP   367 IN FLOW TIME STEP     1 STRESS PERIOD     3
      3 TOTAL ITERATIONS



 >>>>>>>>>>>>>>>>>>>>>>>>>>>>>>>>>>>>>>>>>>>>>>>>>>>>>>>FOR COMPONENT NO. 01<<<<<<<<<<<<<<<<<<<<<<<<<<<<<<<<<<<<<<<<<<<<<<<<<<<<<<<


                                            -------------------------------------------
                                                      TRANSPORT STEP NO.  367
                                            -------------------------------------------

 TOTAL ELAPSED TIME SINCE BEGINNING OF SIMULATION =   38.54000    D   
 .....................................................................

                     CUMULATIVE MASS BUDGETS AT END OF TRANSPORT STEP  367, TIME STEP    1, STRESS PERIOD    3
                     -----------------------------------------------------------------------------------------

                                                             IN                           OUT
                                                      ----------------             ----------------
                               CONSTANT CONCENTRATION:    0.000000                    0.000000    
                                        CONSTANT HEAD:    0.000000                  -0.1785140E-01
                                                WELLS:   0.2378498E-01                0.000000    
                               MASS STOR (FLOW MODEL):    0.000000                    0.000000    
                                MASS STORAGE (SOLUTE):   0.1875604E-04              -0.5952767E-02
                            ---------------------------------------------------------------------------
                                              [TOTAL]:   0.2380374E-01 KG           -0.2380417E-01 KG  

                                                          NET (IN - OUT):  -0.4339963E-06
                                                   DISCREPANCY (PERCENT):  -0.1823211E-02
     1 CALLS TO GCG PACKAGE FOR TRANSPORT TIME STEP   368 IN FLOW TIME STEP     1 STRESS PERIOD     3
      4 TOTAL ITERATIONS
     1 CALLS TO GCG PACKAGE FOR TRANSPORT TIME STEP   369 IN FLOW TIME STEP     1 STRESS PERIOD     3
      4 TOTAL ITERATIONS
     1 CALLS TO GCG PACKAGE FOR TRANSPORT TIME STEP   370 IN FLOW TIME STEP     1 STRESS PERIOD     3
      4 TOTAL ITERATIONS
     1 CALLS TO GCG PACKAGE FOR TRANSPORT TIME STEP   371 IN FLOW TIME STEP     1 STRESS PERIOD     3
      4 TOTAL ITERATIONS
     1 CALLS TO GCG PACKAGE FOR TRANSPORT TIME STEP   372 IN FLOW TIME STEP     1 STRESS PERIOD     3
      4 TOTAL ITERATIONS
     1 CALLS TO GCG PACKAGE FOR TRANSPORT TIME STEP   373 IN FLOW TIME STEP     1 STRESS PERIOD     3
      4 TOTAL ITERATIONS
     1 CALLS TO GCG PACKAGE FOR TRANSPORT TIME STEP   374 IN FLOW TIME STEP     1 STRESS PERIOD     3
      4 TOTAL ITERATIONS
     1 CALLS TO GCG PACKAGE FOR TRANSPORT TIME STEP   375 IN FLOW TIME STEP     1 STRESS PERIOD     3
      4 TOTAL ITERATIONS
     1 CALLS TO GCG PACKAGE FOR TRANSPORT TIME STEP   376 IN FLOW TIME STEP     1 STRESS PERIOD     3
      4 TOTAL ITERATIONS
     1 CALLS TO GCG PACKAGE FOR TRANSPORT TIME STEP   377 IN FLOW TIME STEP     1 STRESS PERIOD     3
      4 TOTAL ITERATIONS
     1 CALLS TO GCG PACKAGE FOR TRANSPORT TIME STEP   378 IN FLOW TIME STEP     1 STRESS PERIOD     3
      4 TOTAL ITERATIONS
     1 CALLS TO GCG PACKAGE FOR TRANSPORT TIME STEP   379 IN FLOW TIME STEP     1 STRESS PERIOD     3
      4 TOTAL ITERATIONS
     1 CALLS TO GCG PACKAGE FOR TRANSPORT TIME STEP   380 IN FLOW TIME STEP     1 STRESS PERIOD     3
      4 TOTAL ITERATIONS
     1 CALLS TO GCG PACKAGE FOR TRANSPORT TIME STEP   381 IN FLOW TIME STEP     1 STRESS PERIOD     3
      4 TOTAL ITERATIONS
     1 CALLS TO GCG PACKAGE FOR TRANSPORT TIME STEP   382 IN FLOW TIME STEP     1 STRESS PERIOD     3
      4 TOTAL ITERATIONS
     1 CALLS TO GCG PACKAGE FOR TRANSPORT TIME STEP   383 IN FLOW TIME STEP     1 STRESS PERIOD     3
      4 TOTAL ITERATIONS
     1 CALLS TO GCG PACKAGE FOR TRANSPORT TIME STEP   384 IN FLOW TIME STEP     1 STRESS PERIOD     3
      4 TOTAL ITERATIONS
     1 CALLS TO GCG PACKAGE FOR TRANSPORT TIME STEP   385 IN FLOW TIME STEP     1 STRESS PERIOD     3
      4 TOTAL ITERATIONS
     1 CALLS TO GCG PACKAGE FOR TRANSPORT TIME STEP   386 IN FLOW TIME STEP     1 STRESS PERIOD     3
      4 TOTAL ITERATIONS
     1 CALLS TO GCG PACKAGE FOR TRANSPORT TIME STEP   387 IN FLOW TIME STEP     1 STRESS PERIOD     3
      4 TOTAL ITERATIONS
     1 CALLS TO GCG PACKAGE FOR TRANSPORT TIME STEP   388 IN FLOW TIME STEP     1 STRESS PERIOD     3
      4 TOTAL ITERATIONS
     1 CALLS TO GCG PACKAGE FOR TRANSPORT TIME STEP   389 IN FLOW TIME STEP     1 STRESS PERIOD     3
      4 TOTAL ITERATIONS
     1 CALLS TO GCG PACKAGE FOR TRANSPORT TIME STEP   390 IN FLOW TIME STEP     1 STRESS PERIOD     3
      4 TOTAL ITERATIONS
     1 CALLS TO GCG PACKAGE FOR TRANSPORT TIME STEP   391 IN FLOW TIME STEP     1 STRESS PERIOD     3
      4 TOTAL ITERATIONS
     1 CALLS TO GCG PACKAGE FOR TRANSPORT TIME STEP   392 IN FLOW TIME STEP     1 STRESS PERIOD     3
      4 TOTAL ITERATIONS
     1 CALLS TO GCG PACKAGE FOR TRANSPORT TIME STEP   393 IN FLOW TIME STEP     1 STRESS PERIOD     3
      4 TOTAL ITERATIONS
     1 CALLS TO GCG PACKAGE FOR TRANSPORT TIME STEP   394 IN FLOW TIME STEP     1 STRESS PERIOD     3
      4 TOTAL ITERATIONS
     1 CALLS TO GCG PACKAGE FOR TRANSPORT TIME STEP   395 IN FLOW TIME STEP     1 STRESS PERIOD     3
      4 TOTAL ITERATIONS
     1 CALLS TO GCG PACKAGE FOR TRANSPORT TIME STEP   396 IN FLOW TIME STEP     1 STRESS PERIOD     3
      4 TOTAL ITERATIONS
     1 CALLS TO GCG PACKAGE FOR TRANSPORT TIME STEP   397 IN FLOW TIME STEP     1 STRESS PERIOD     3
      4 TOTAL ITERATIONS
     1 CALLS TO GCG PACKAGE FOR TRANSPORT TIME STEP   398 IN FLOW TIME STEP     1 STRESS PERIOD     3
      4 TOTAL ITERATIONS
     1 CALLS TO GCG PACKAGE FOR TRANSPORT TIME STEP   399 IN FLOW TIME STEP     1 STRESS PERIOD     3
      4 TOTAL ITERATIONS
     1 CALLS TO GCG PACKAGE FOR TRANSPORT TIME STEP   400 IN FLOW TIME STEP     1 STRESS PERIOD     3
      4 TOTAL ITERATIONS
     1 CALLS TO GCG PACKAGE FOR TRANSPORT TIME STEP   401 IN FLOW TIME STEP     1 STRESS PERIOD     3
      4 TOTAL ITERATIONS
     1 CALLS TO GCG PACKAGE FOR TRANSPORT TIME STEP   402 IN FLOW TIME STEP     1 STRESS PERIOD     3
      4 TOTAL ITERATIONS
     1 CALLS TO GCG PACKAGE FOR TRANSPORT TIME STEP   403 IN FLOW TIME STEP     1 STRESS PERIOD     3
      4 TOTAL ITERATIONS
     1 CALLS TO GCG PACKAGE FOR TRANSPORT TIME STEP   404 IN FLOW TIME STEP     1 STRESS PERIOD     3
      4 TOTAL ITERATIONS
     1 CALLS TO GCG PACKAGE FOR TRANSPORT TIME STEP   405 IN FLOW TIME STEP     1 STRESS PERIOD     3
      4 TOTAL ITERATIONS
     1 CALLS TO GCG PACKAGE FOR TRANSPORT TIME STEP   406 IN FLOW TIME STEP     1 STRESS PERIOD     3
      4 TOTAL ITERATIONS
     1 CALLS TO GCG PACKAGE FOR TRANSPORT TIME STEP   407 IN FLOW TIME STEP     1 STRESS PERIOD     3
      4 TOTAL ITERATIONS
     1 CALLS TO GCG PACKAGE FOR TRANSPORT TIME STEP   408 IN FLOW TIME STEP     1 STRESS PERIOD     3
      4 TOTAL ITERATIONS
     1 CALLS TO GCG PACKAGE FOR TRANSPORT TIME STEP   409 IN FLOW TIME STEP     1 STRESS PERIOD     3
      4 TOTAL ITERATIONS
     1 CALLS TO GCG PACKAGE FOR TRANSPORT TIME STEP   410 IN FLOW TIME STEP     1 STRESS PERIOD     3
      4 TOTAL ITERATIONS
     1 CALLS TO GCG PACKAGE FOR TRANSPORT TIME STEP   411 IN FLOW TIME STEP     1 STRESS PERIOD     3
      4 TOTAL ITERATIONS
     1 CALLS TO GCG PACKAGE FOR TRANSPORT TIME STEP   412 IN FLOW TIME STEP     1 STRESS PERIOD     3
      4 TOTAL ITERATIONS
     1 CALLS TO GCG PACKAGE FOR TRANSPORT TIME STEP   413 IN FLOW TIME STEP     1 STRESS PERIOD     3
      3 TOTAL ITERATIONS



 >>>>>>>>>>>>>>>>>>>>>>>>>>>>>>>>>>>>>>>>>>>>>>>>>>>>>>>FOR COMPONENT NO. 01<<<<<<<<<<<<<<<<<<<<<<<<<<<<<<<<<<<<<<<<<<<<<<<<<<<<<<<


                                            -------------------------------------------
                                                      TRANSPORT STEP NO.  413
                                            -------------------------------------------

 TOTAL ELAPSED TIME SINCE BEGINNING OF SIMULATION =   39.36000    D   
 .....................................................................

                     CUMULATIVE MASS BUDGETS AT END OF TRANSPORT STEP  413, TIME STEP    1, STRESS PERIOD    3
                     -----------------------------------------------------------------------------------------

                                                             IN                           OUT
                                                      ----------------             ----------------
                               CONSTANT CONCENTRATION:    0.000000                    0.000000    
                                        CONSTANT HEAD:    0.000000                  -0.1834969E-01
                                                WELLS:   0.2429104E-01                0.000000    
                               MASS STOR (FLOW MODEL):    0.000000                    0.000000    
                                MASS STORAGE (SOLUTE):   0.1885008E-04              -0.5960606E-02
                            ---------------------------------------------------------------------------
                                              [TOTAL]:   0.2430989E-01 KG           -0.2431030E-01 KG  

                                                          NET (IN - OUT):  -0.4023314E-06
                                                   DISCREPANCY (PERCENT):  -0.1654997E-02
     1 CALLS TO GCG PACKAGE FOR TRANSPORT TIME STEP   414 IN FLOW TIME STEP     1 STRESS PERIOD     3
      4 TOTAL ITERATIONS
     1 CALLS TO GCG PACKAGE FOR TRANSPORT TIME STEP   415 IN FLOW TIME STEP     1 STRESS PERIOD     3
      4 TOTAL ITERATIONS
     1 CALLS TO GCG PACKAGE FOR TRANSPORT TIME STEP   416 IN FLOW TIME STEP     1 STRESS PERIOD     3
      4 TOTAL ITERATIONS
     1 CALLS TO GCG PACKAGE FOR TRANSPORT TIME STEP   417 IN FLOW TIME STEP     1 STRESS PERIOD     3
      4 TOTAL ITERATIONS
     1 CALLS TO GCG PACKAGE FOR TRANSPORT TIME STEP   418 IN FLOW TIME STEP     1 STRESS PERIOD     3
      4 TOTAL ITERATIONS
     1 CALLS TO GCG PACKAGE FOR TRANSPORT TIME STEP   419 IN FLOW TIME STEP     1 STRESS PERIOD     3
      4 TOTAL ITERATIONS
     1 CALLS TO GCG PACKAGE FOR TRANSPORT TIME STEP   420 IN FLOW TIME STEP     1 STRESS PERIOD     3
      4 TOTAL ITERATIONS
     1 CALLS TO GCG PACKAGE FOR TRANSPORT TIME STEP   421 IN FLOW TIME STEP     1 STRESS PERIOD     3
      4 TOTAL ITERATIONS
     1 CALLS TO GCG PACKAGE FOR TRANSPORT TIME STEP   422 IN FLOW TIME STEP     1 STRESS PERIOD     3
      4 TOTAL ITERATIONS
     1 CALLS TO GCG PACKAGE FOR TRANSPORT TIME STEP   423 IN FLOW TIME STEP     1 STRESS PERIOD     3
      4 TOTAL ITERATIONS
     1 CALLS TO GCG PACKAGE FOR TRANSPORT TIME STEP   424 IN FLOW TIME STEP     1 STRESS PERIOD     3
      4 TOTAL ITERATIONS
     1 CALLS TO GCG PACKAGE FOR TRANSPORT TIME STEP   425 IN FLOW TIME STEP     1 STRESS PERIOD     3
      4 TOTAL ITERATIONS
     1 CALLS TO GCG PACKAGE FOR TRANSPORT TIME STEP   426 IN FLOW TIME STEP     1 STRESS PERIOD     3
      4 TOTAL ITERATIONS
     1 CALLS TO GCG PACKAGE FOR TRANSPORT TIME STEP   427 IN FLOW TIME STEP     1 STRESS PERIOD     3
      4 TOTAL ITERATIONS
     1 CALLS TO GCG PACKAGE FOR TRANSPORT TIME STEP   428 IN FLOW TIME STEP     1 STRESS PERIOD     3
      4 TOTAL ITERATIONS
     1 CALLS TO GCG PACKAGE FOR TRANSPORT TIME STEP   429 IN FLOW TIME STEP     1 STRESS PERIOD     3
      4 TOTAL ITERATIONS
     1 CALLS TO GCG PACKAGE FOR TRANSPORT TIME STEP   430 IN FLOW TIME STEP     1 STRESS PERIOD     3
      4 TOTAL ITERATIONS
     1 CALLS TO GCG PACKAGE FOR TRANSPORT TIME STEP   431 IN FLOW TIME STEP     1 STRESS PERIOD     3
      4 TOTAL ITERATIONS
     1 CALLS TO GCG PACKAGE FOR TRANSPORT TIME STEP   432 IN FLOW TIME STEP     1 STRESS PERIOD     3
      4 TOTAL ITERATIONS
     1 CALLS TO GCG PACKAGE FOR TRANSPORT TIME STEP   433 IN FLOW TIME STEP     1 STRESS PERIOD     3
      4 TOTAL ITERATIONS
     1 CALLS TO GCG PACKAGE FOR TRANSPORT TIME STEP   434 IN FLOW TIME STEP     1 STRESS PERIOD     3
      4 TOTAL ITERATIONS
     1 CALLS TO GCG PACKAGE FOR TRANSPORT TIME STEP   435 IN FLOW TIME STEP     1 STRESS PERIOD     3
      4 TOTAL ITERATIONS
     1 CALLS TO GCG PACKAGE FOR TRANSPORT TIME STEP   436 IN FLOW TIME STEP     1 STRESS PERIOD     3
      4 TOTAL ITERATIONS
     1 CALLS TO GCG PACKAGE FOR TRANSPORT TIME STEP   437 IN FLOW TIME STEP     1 STRESS PERIOD     3
      4 TOTAL ITERATIONS
     1 CALLS TO GCG PACKAGE FOR TRANSPORT TIME STEP   438 IN FLOW TIME STEP     1 STRESS PERIOD     3
      4 TOTAL ITERATIONS
     1 CALLS TO GCG PACKAGE FOR TRANSPORT TIME STEP   439 IN FLOW TIME STEP     1 STRESS PERIOD     3
      4 TOTAL ITERATIONS
     1 CALLS TO GCG PACKAGE FOR TRANSPORT TIME STEP   440 IN FLOW TIME STEP     1 STRESS PERIOD     3
      4 TOTAL ITERATIONS
     1 CALLS TO GCG PACKAGE FOR TRANSPORT TIME STEP   441 IN FLOW TIME STEP     1 STRESS PERIOD     3
      4 TOTAL ITERATIONS
     1 CALLS TO GCG PACKAGE FOR TRANSPORT TIME STEP   442 IN FLOW TIME STEP     1 STRESS PERIOD     3
      4 TOTAL ITERATIONS
     1 CALLS TO GCG PACKAGE FOR TRANSPORT TIME STEP   443 IN FLOW TIME STEP     1 STRESS PERIOD     3
      4 TOTAL ITERATIONS
     1 CALLS TO GCG PACKAGE FOR TRANSPORT TIME STEP   444 IN FLOW TIME STEP     1 STRESS PERIOD     3
      4 TOTAL ITERATIONS
     1 CALLS TO GCG PACKAGE FOR TRANSPORT TIME STEP   445 IN FLOW TIME STEP     1 STRESS PERIOD     3
      4 TOTAL ITERATIONS
     1 CALLS TO GCG PACKAGE FOR TRANSPORT TIME STEP   446 IN FLOW TIME STEP     1 STRESS PERIOD     3
      4 TOTAL ITERATIONS
     1 CALLS TO GCG PACKAGE FOR TRANSPORT TIME STEP   447 IN FLOW TIME STEP     1 STRESS PERIOD     3
      4 TOTAL ITERATIONS
     1 CALLS TO GCG PACKAGE FOR TRANSPORT TIME STEP   448 IN FLOW TIME STEP     1 STRESS PERIOD     3
      4 TOTAL ITERATIONS
     1 CALLS TO GCG PACKAGE FOR TRANSPORT TIME STEP   449 IN FLOW TIME STEP     1 STRESS PERIOD     3
      4 TOTAL ITERATIONS
     1 CALLS TO GCG PACKAGE FOR TRANSPORT TIME STEP   450 IN FLOW TIME STEP     1 STRESS PERIOD     3
      4 TOTAL ITERATIONS
     1 CALLS TO GCG PACKAGE FOR TRANSPORT TIME STEP   451 IN FLOW TIME STEP     1 STRESS PERIOD     3
      4 TOTAL ITERATIONS
     1 CALLS TO GCG PACKAGE FOR TRANSPORT TIME STEP   452 IN FLOW TIME STEP     1 STRESS PERIOD     3
      4 TOTAL ITERATIONS
     1 CALLS TO GCG PACKAGE FOR TRANSPORT TIME STEP   453 IN FLOW TIME STEP     1 STRESS PERIOD     3
      4 TOTAL ITERATIONS
     1 CALLS TO GCG PACKAGE FOR TRANSPORT TIME STEP   454 IN FLOW TIME STEP     1 STRESS PERIOD     3
      4 TOTAL ITERATIONS
     1 CALLS TO GCG PACKAGE FOR TRANSPORT TIME STEP   455 IN FLOW TIME STEP     1 STRESS PERIOD     3
      4 TOTAL ITERATIONS
     1 CALLS TO GCG PACKAGE FOR TRANSPORT TIME STEP   456 IN FLOW TIME STEP     1 STRESS PERIOD     3
      4 TOTAL ITERATIONS
     1 CALLS TO GCG PACKAGE FOR TRANSPORT TIME STEP   457 IN FLOW TIME STEP     1 STRESS PERIOD     3
      4 TOTAL ITERATIONS
     1 CALLS TO GCG PACKAGE FOR TRANSPORT TIME STEP   458 IN FLOW TIME STEP     1 STRESS PERIOD     3
      4 TOTAL ITERATIONS
     1 CALLS TO GCG PACKAGE FOR TRANSPORT TIME STEP   459 IN FLOW TIME STEP     1 STRESS PERIOD     3
      3 TOTAL ITERATIONS



 >>>>>>>>>>>>>>>>>>>>>>>>>>>>>>>>>>>>>>>>>>>>>>>>>>>>>>>FOR COMPONENT NO. 01<<<<<<<<<<<<<<<<<<<<<<<<<<<<<<<<<<<<<<<<<<<<<<<<<<<<<<<


                                            -------------------------------------------
                                                      TRANSPORT STEP NO.  459
                                            -------------------------------------------

 TOTAL ELAPSED TIME SINCE BEGINNING OF SIMULATION =   40.18000    D   
 .....................................................................

                     CUMULATIVE MASS BUDGETS AT END OF TRANSPORT STEP  459, TIME STEP    1, STRESS PERIOD    3
                     -----------------------------------------------------------------------------------------

                                                             IN                           OUT
                                                      ----------------             ----------------
                               CONSTANT CONCENTRATION:    0.000000                    0.000000    
                                        CONSTANT HEAD:    0.000000                  -0.1884839E-01
                                                WELLS:   0.2479711E-01                0.000000    
                               MASS STOR (FLOW MODEL):    0.000000                    0.000000    
                                MASS STORAGE (SOLUTE):   0.1891303E-04              -0.5967996E-02
                            ---------------------------------------------------------------------------
                                              [TOTAL]:   0.2481602E-01 KG           -0.2481639E-01 KG  

                                                          NET (IN - OUT):  -0.3706664E-06
                                                   DISCREPANCY (PERCENT):  -0.1493647E-02
     1 CALLS TO GCG PACKAGE FOR TRANSPORT TIME STEP   460 IN FLOW TIME STEP     1 STRESS PERIOD     3
      4 TOTAL ITERATIONS
     1 CALLS TO GCG PACKAGE FOR TRANSPORT TIME STEP   461 IN FLOW TIME STEP     1 STRESS PERIOD     3
      4 TOTAL ITERATIONS
     1 CALLS TO GCG PACKAGE FOR TRANSPORT TIME STEP   462 IN FLOW TIME STEP     1 STRESS PERIOD     3
      4 TOTAL ITERATIONS
     1 CALLS TO GCG PACKAGE FOR TRANSPORT TIME STEP   463 IN FLOW TIME STEP     1 STRESS PERIOD     3
      4 TOTAL ITERATIONS
     1 CALLS TO GCG PACKAGE FOR TRANSPORT TIME STEP   464 IN FLOW TIME STEP     1 STRESS PERIOD     3
      4 TOTAL ITERATIONS
     1 CALLS TO GCG PACKAGE FOR TRANSPORT TIME STEP   465 IN FLOW TIME STEP     1 STRESS PERIOD     3
      4 TOTAL ITERATIONS
     1 CALLS TO GCG PACKAGE FOR TRANSPORT TIME STEP   466 IN FLOW TIME STEP     1 STRESS PERIOD     3
      4 TOTAL ITERATIONS
     1 CALLS TO GCG PACKAGE FOR TRANSPORT TIME STEP   467 IN FLOW TIME STEP     1 STRESS PERIOD     3
      4 TOTAL ITERATIONS
     1 CALLS TO GCG PACKAGE FOR TRANSPORT TIME STEP   468 IN FLOW TIME STEP     1 STRESS PERIOD     3
      4 TOTAL ITERATIONS
     1 CALLS TO GCG PACKAGE FOR TRANSPORT TIME STEP   469 IN FLOW TIME STEP     1 STRESS PERIOD     3
      4 TOTAL ITERATIONS
     1 CALLS TO GCG PACKAGE FOR TRANSPORT TIME STEP   470 IN FLOW TIME STEP     1 STRESS PERIOD     3
      4 TOTAL ITERATIONS
     1 CALLS TO GCG PACKAGE FOR TRANSPORT TIME STEP   471 IN FLOW TIME STEP     1 STRESS PERIOD     3
      4 TOTAL ITERATIONS
     1 CALLS TO GCG PACKAGE FOR TRANSPORT TIME STEP   472 IN FLOW TIME STEP     1 STRESS PERIOD     3
      4 TOTAL ITERATIONS
     1 CALLS TO GCG PACKAGE FOR TRANSPORT TIME STEP   473 IN FLOW TIME STEP     1 STRESS PERIOD     3
      4 TOTAL ITERATIONS
     1 CALLS TO GCG PACKAGE FOR TRANSPORT TIME STEP   474 IN FLOW TIME STEP     1 STRESS PERIOD     3
      4 TOTAL ITERATIONS
     1 CALLS TO GCG PACKAGE FOR TRANSPORT TIME STEP   475 IN FLOW TIME STEP     1 STRESS PERIOD     3
      4 TOTAL ITERATIONS
     1 CALLS TO GCG PACKAGE FOR TRANSPORT TIME STEP   476 IN FLOW TIME STEP     1 STRESS PERIOD     3
      4 TOTAL ITERATIONS
     1 CALLS TO GCG PACKAGE FOR TRANSPORT TIME STEP   477 IN FLOW TIME STEP     1 STRESS PERIOD     3
      4 TOTAL ITERATIONS
     1 CALLS TO GCG PACKAGE FOR TRANSPORT TIME STEP   478 IN FLOW TIME STEP     1 STRESS PERIOD     3
      4 TOTAL ITERATIONS
     1 CALLS TO GCG PACKAGE FOR TRANSPORT TIME STEP   479 IN FLOW TIME STEP     1 STRESS PERIOD     3
      4 TOTAL ITERATIONS
     1 CALLS TO GCG PACKAGE FOR TRANSPORT TIME STEP   480 IN FLOW TIME STEP     1 STRESS PERIOD     3
      4 TOTAL ITERATIONS
     1 CALLS TO GCG PACKAGE FOR TRANSPORT TIME STEP   481 IN FLOW TIME STEP     1 STRESS PERIOD     3
      4 TOTAL ITERATIONS
     1 CALLS TO GCG PACKAGE FOR TRANSPORT TIME STEP   482 IN FLOW TIME STEP     1 STRESS PERIOD     3
      4 TOTAL ITERATIONS
     1 CALLS TO GCG PACKAGE FOR TRANSPORT TIME STEP   483 IN FLOW TIME STEP     1 STRESS PERIOD     3
      4 TOTAL ITERATIONS
     1 CALLS TO GCG PACKAGE FOR TRANSPORT TIME STEP   484 IN FLOW TIME STEP     1 STRESS PERIOD     3
      4 TOTAL ITERATIONS
     1 CALLS TO GCG PACKAGE FOR TRANSPORT TIME STEP   485 IN FLOW TIME STEP     1 STRESS PERIOD     3
      4 TOTAL ITERATIONS
     1 CALLS TO GCG PACKAGE FOR TRANSPORT TIME STEP   486 IN FLOW TIME STEP     1 STRESS PERIOD     3
      4 TOTAL ITERATIONS
     1 CALLS TO GCG PACKAGE FOR TRANSPORT TIME STEP   487 IN FLOW TIME STEP     1 STRESS PERIOD     3
      4 TOTAL ITERATIONS
     1 CALLS TO GCG PACKAGE FOR TRANSPORT TIME STEP   488 IN FLOW TIME STEP     1 STRESS PERIOD     3
      4 TOTAL ITERATIONS
     1 CALLS TO GCG PACKAGE FOR TRANSPORT TIME STEP   489 IN FLOW TIME STEP     1 STRESS PERIOD     3
      4 TOTAL ITERATIONS
     1 CALLS TO GCG PACKAGE FOR TRANSPORT TIME STEP   490 IN FLOW TIME STEP     1 STRESS PERIOD     3
      4 TOTAL ITERATIONS
     1 CALLS TO GCG PACKAGE FOR TRANSPORT TIME STEP   491 IN FLOW TIME STEP     1 STRESS PERIOD     3
      4 TOTAL ITERATIONS
     1 CALLS TO GCG PACKAGE FOR TRANSPORT TIME STEP   492 IN FLOW TIME STEP     1 STRESS PERIOD     3
      4 TOTAL ITERATIONS
     1 CALLS TO GCG PACKAGE FOR TRANSPORT TIME STEP   493 IN FLOW TIME STEP     1 STRESS PERIOD     3
      4 TOTAL ITERATIONS
     1 CALLS TO GCG PACKAGE FOR TRANSPORT TIME STEP   494 IN FLOW TIME STEP     1 STRESS PERIOD     3
      4 TOTAL ITERATIONS
     1 CALLS TO GCG PACKAGE FOR TRANSPORT TIME STEP   495 IN FLOW TIME STEP     1 STRESS PERIOD     3
      4 TOTAL ITERATIONS
     1 CALLS TO GCG PACKAGE FOR TRANSPORT TIME STEP   496 IN FLOW TIME STEP     1 STRESS PERIOD     3
      4 TOTAL ITERATIONS
     1 CALLS TO GCG PACKAGE FOR TRANSPORT TIME STEP   497 IN FLOW TIME STEP     1 STRESS PERIOD     3
      4 TOTAL ITERATIONS
     1 CALLS TO GCG PACKAGE FOR TRANSPORT TIME STEP   498 IN FLOW TIME STEP     1 STRESS PERIOD     3
      4 TOTAL ITERATIONS
     1 CALLS TO GCG PACKAGE FOR TRANSPORT TIME STEP   499 IN FLOW TIME STEP     1 STRESS PERIOD     3
      4 TOTAL ITERATIONS
     1 CALLS TO GCG PACKAGE FOR TRANSPORT TIME STEP   500 IN FLOW TIME STEP     1 STRESS PERIOD     3
      4 TOTAL ITERATIONS
     1 CALLS TO GCG PACKAGE FOR TRANSPORT TIME STEP   501 IN FLOW TIME STEP     1 STRESS PERIOD     3
      4 TOTAL ITERATIONS
     1 CALLS TO GCG PACKAGE FOR TRANSPORT TIME STEP   502 IN FLOW TIME STEP     1 STRESS PERIOD     3
      4 TOTAL ITERATIONS
     1 CALLS TO GCG PACKAGE FOR TRANSPORT TIME STEP   503 IN FLOW TIME STEP     1 STRESS PERIOD     3
      4 TOTAL ITERATIONS
     1 CALLS TO GCG PACKAGE FOR TRANSPORT TIME STEP   504 IN FLOW TIME STEP     1 STRESS PERIOD     3
      4 TOTAL ITERATIONS
     1 CALLS TO GCG PACKAGE FOR TRANSPORT TIME STEP   505 IN FLOW TIME STEP     1 STRESS PERIOD     3
      3 TOTAL ITERATIONS



 >>>>>>>>>>>>>>>>>>>>>>>>>>>>>>>>>>>>>>>>>>>>>>>>>>>>>>>FOR COMPONENT NO. 01<<<<<<<<<<<<<<<<<<<<<<<<<<<<<<<<<<<<<<<<<<<<<<<<<<<<<<<


                                            -------------------------------------------
                                                      TRANSPORT STEP NO.  505
                                            -------------------------------------------

 TOTAL ELAPSED TIME SINCE BEGINNING OF SIMULATION =   41.00000    D   
 .....................................................................

                     CUMULATIVE MASS BUDGETS AT END OF TRANSPORT STEP  505, TIME STEP    1, STRESS PERIOD    3
                     -----------------------------------------------------------------------------------------

                                                             IN                           OUT
                                                      ----------------             ----------------
                               CONSTANT CONCENTRATION:    0.000000                    0.000000    
                                        CONSTANT HEAD:    0.000000                  -0.1934750E-01
                                                WELLS:   0.2530317E-01                0.000000    
                               MASS STOR (FLOW MODEL):    0.000000                    0.000000    
                                MASS STORAGE (SOLUTE):   0.1895101E-04              -0.5974957E-02
                            ---------------------------------------------------------------------------
                                              [TOTAL]:   0.2532212E-01 KG           -0.2532246E-01 KG  

                                                          NET (IN - OUT):  -0.3371388E-06
                                                   DISCREPANCY (PERCENT):  -0.1331391E-02
     1 CALLS TO GCG PACKAGE FOR TRANSPORT TIME STEP   506 IN FLOW TIME STEP     1 STRESS PERIOD     3
      4 TOTAL ITERATIONS
     1 CALLS TO GCG PACKAGE FOR TRANSPORT TIME STEP   507 IN FLOW TIME STEP     1 STRESS PERIOD     3
      4 TOTAL ITERATIONS
     1 CALLS TO GCG PACKAGE FOR TRANSPORT TIME STEP   508 IN FLOW TIME STEP     1 STRESS PERIOD     3
      4 TOTAL ITERATIONS
     1 CALLS TO GCG PACKAGE FOR TRANSPORT TIME STEP   509 IN FLOW TIME STEP     1 STRESS PERIOD     3
      4 TOTAL ITERATIONS
     1 CALLS TO GCG PACKAGE FOR TRANSPORT TIME STEP   510 IN FLOW TIME STEP     1 STRESS PERIOD     3
      4 TOTAL ITERATIONS
     1 CALLS TO GCG PACKAGE FOR TRANSPORT TIME STEP   511 IN FLOW TIME STEP     1 STRESS PERIOD     3
      4 TOTAL ITERATIONS
     1 CALLS TO GCG PACKAGE FOR TRANSPORT TIME STEP   512 IN FLOW TIME STEP     1 STRESS PERIOD     3
      4 TOTAL ITERATIONS
     1 CALLS TO GCG PACKAGE FOR TRANSPORT TIME STEP   513 IN FLOW TIME STEP     1 STRESS PERIOD     3
      4 TOTAL ITERATIONS
     1 CALLS TO GCG PACKAGE FOR TRANSPORT TIME STEP   514 IN FLOW TIME STEP     1 STRESS PERIOD     3
      4 TOTAL ITERATIONS
     1 CALLS TO GCG PACKAGE FOR TRANSPORT TIME STEP   515 IN FLOW TIME STEP     1 STRESS PERIOD     3
      4 TOTAL ITERATIONS
     1 CALLS TO GCG PACKAGE FOR TRANSPORT TIME STEP   516 IN FLOW TIME STEP     1 STRESS PERIOD     3
      4 TOTAL ITERATIONS
     1 CALLS TO GCG PACKAGE FOR TRANSPORT TIME STEP   517 IN FLOW TIME STEP     1 STRESS PERIOD     3
      4 TOTAL ITERATIONS
     1 CALLS TO GCG PACKAGE FOR TRANSPORT TIME STEP   518 IN FLOW TIME STEP     1 STRESS PERIOD     3
      4 TOTAL ITERATIONS
     1 CALLS TO GCG PACKAGE FOR TRANSPORT TIME STEP   519 IN FLOW TIME STEP     1 STRESS PERIOD     3
      4 TOTAL ITERATIONS
     1 CALLS TO GCG PACKAGE FOR TRANSPORT TIME STEP   520 IN FLOW TIME STEP     1 STRESS PERIOD     3
      4 TOTAL ITERATIONS
     1 CALLS TO GCG PACKAGE FOR TRANSPORT TIME STEP   521 IN FLOW TIME STEP     1 STRESS PERIOD     3
      4 TOTAL ITERATIONS
     1 CALLS TO GCG PACKAGE FOR TRANSPORT TIME STEP   522 IN FLOW TIME STEP     1 STRESS PERIOD     3
      4 TOTAL ITERATIONS
     1 CALLS TO GCG PACKAGE FOR TRANSPORT TIME STEP   523 IN FLOW TIME STEP     1 STRESS PERIOD     3
      4 TOTAL ITERATIONS
     1 CALLS TO GCG PACKAGE FOR TRANSPORT TIME STEP   524 IN FLOW TIME STEP     1 STRESS PERIOD     3
      4 TOTAL ITERATIONS
     1 CALLS TO GCG PACKAGE FOR TRANSPORT TIME STEP   525 IN FLOW TIME STEP     1 STRESS PERIOD     3
      4 TOTAL ITERATIONS
     1 CALLS TO GCG PACKAGE FOR TRANSPORT TIME STEP   526 IN FLOW TIME STEP     1 STRESS PERIOD     3
      4 TOTAL ITERATIONS
     1 CALLS TO GCG PACKAGE FOR TRANSPORT TIME STEP   527 IN FLOW TIME STEP     1 STRESS PERIOD     3
      4 TOTAL ITERATIONS
     1 CALLS TO GCG PACKAGE FOR TRANSPORT TIME STEP   528 IN FLOW TIME STEP     1 STRESS PERIOD     3
      4 TOTAL ITERATIONS
     1 CALLS TO GCG PACKAGE FOR TRANSPORT TIME STEP   529 IN FLOW TIME STEP     1 STRESS PERIOD     3
      4 TOTAL ITERATIONS
     1 CALLS TO GCG PACKAGE FOR TRANSPORT TIME STEP   530 IN FLOW TIME STEP     1 STRESS PERIOD     3
      4 TOTAL ITERATIONS
     1 CALLS TO GCG PACKAGE FOR TRANSPORT TIME STEP   531 IN FLOW TIME STEP     1 STRESS PERIOD     3
      4 TOTAL ITERATIONS
     1 CALLS TO GCG PACKAGE FOR TRANSPORT TIME STEP   532 IN FLOW TIME STEP     1 STRESS PERIOD     3
      4 TOTAL ITERATIONS
     1 CALLS TO GCG PACKAGE FOR TRANSPORT TIME STEP   533 IN FLOW TIME STEP     1 STRESS PERIOD     3
      4 TOTAL ITERATIONS
     1 CALLS TO GCG PACKAGE FOR TRANSPORT TIME STEP   534 IN FLOW TIME STEP     1 STRESS PERIOD     3
      4 TOTAL ITERATIONS
     1 CALLS TO GCG PACKAGE FOR TRANSPORT TIME STEP   535 IN FLOW TIME STEP     1 STRESS PERIOD     3
      4 TOTAL ITERATIONS
     1 CALLS TO GCG PACKAGE FOR TRANSPORT TIME STEP   536 IN FLOW TIME STEP     1 STRESS PERIOD     3
      4 TOTAL ITERATIONS
     1 CALLS TO GCG PACKAGE FOR TRANSPORT TIME STEP   537 IN FLOW TIME STEP     1 STRESS PERIOD     3
      4 TOTAL ITERATIONS
     1 CALLS TO GCG PACKAGE FOR TRANSPORT TIME STEP   538 IN FLOW TIME STEP     1 STRESS PERIOD     3
      4 TOTAL ITERATIONS
     1 CALLS TO GCG PACKAGE FOR TRANSPORT TIME STEP   539 IN FLOW TIME STEP     1 STRESS PERIOD     3
      4 TOTAL ITERATIONS
     1 CALLS TO GCG PACKAGE FOR TRANSPORT TIME STEP   540 IN FLOW TIME STEP     1 STRESS PERIOD     3
      4 TOTAL ITERATIONS
     1 CALLS TO GCG PACKAGE FOR TRANSPORT TIME STEP   541 IN FLOW TIME STEP     1 STRESS PERIOD     3
      4 TOTAL ITERATIONS
     1 CALLS TO GCG PACKAGE FOR TRANSPORT TIME STEP   542 IN FLOW TIME STEP     1 STRESS PERIOD     3
      4 TOTAL ITERATIONS
     1 CALLS TO GCG PACKAGE FOR TRANSPORT TIME STEP   543 IN FLOW TIME STEP     1 STRESS PERIOD     3
      4 TOTAL ITERATIONS
     1 CALLS TO GCG PACKAGE FOR TRANSPORT TIME STEP   544 IN FLOW TIME STEP     1 STRESS PERIOD     3
      4 TOTAL ITERATIONS
     1 CALLS TO GCG PACKAGE FOR TRANSPORT TIME STEP   545 IN FLOW TIME STEP     1 STRESS PERIOD     3
      4 TOTAL ITERATIONS
     1 CALLS TO GCG PACKAGE FOR TRANSPORT TIME STEP   546 IN FLOW TIME STEP     1 STRESS PERIOD     3
      4 TOTAL ITERATIONS
     1 CALLS TO GCG PACKAGE FOR TRANSPORT TIME STEP   547 IN FLOW TIME STEP     1 STRESS PERIOD     3
      4 TOTAL ITERATIONS
     1 CALLS TO GCG PACKAGE FOR TRANSPORT TIME STEP   548 IN FLOW TIME STEP     1 STRESS PERIOD     3
      4 TOTAL ITERATIONS
     1 CALLS TO GCG PACKAGE FOR TRANSPORT TIME STEP   549 IN FLOW TIME STEP     1 STRESS PERIOD     3
      4 TOTAL ITERATIONS
     1 CALLS TO GCG PACKAGE FOR TRANSPORT TIME STEP   550 IN FLOW TIME STEP     1 STRESS PERIOD     3
      4 TOTAL ITERATIONS
     1 CALLS TO GCG PACKAGE FOR TRANSPORT TIME STEP   551 IN FLOW TIME STEP     1 STRESS PERIOD     3
      3 TOTAL ITERATIONS



 >>>>>>>>>>>>>>>>>>>>>>>>>>>>>>>>>>>>>>>>>>>>>>>>>>>>>>>FOR COMPONENT NO. 01<<<<<<<<<<<<<<<<<<<<<<<<<<<<<<<<<<<<<<<<<<<<<<<<<<<<<<<


                                            -------------------------------------------
                                                      TRANSPORT STEP NO.  551
                                            -------------------------------------------

 TOTAL ELAPSED TIME SINCE BEGINNING OF SIMULATION =   41.82000    D   
 .....................................................................

                     CUMULATIVE MASS BUDGETS AT END OF TRANSPORT STEP  551, TIME STEP    1, STRESS PERIOD    3
                     -----------------------------------------------------------------------------------------

                                                             IN                           OUT
                                                      ----------------             ----------------
                               CONSTANT CONCENTRATION:    0.000000                    0.000000    
                                        CONSTANT HEAD:    0.000000                  -0.1984700E-01
                                                WELLS:   0.2580923E-01                0.000000    
                               MASS STOR (FLOW MODEL):    0.000000                    0.000000    
                                MASS STORAGE (SOLUTE):   0.1897765E-04              -0.5981509E-02
                            ---------------------------------------------------------------------------
                                              [TOTAL]:   0.2582821E-01 KG           -0.2582851E-01 KG  

                                                          NET (IN - OUT):  -0.3036112E-06
                                                   DISCREPANCY (PERCENT):  -0.1175495E-02
     1 CALLS TO GCG PACKAGE FOR TRANSPORT TIME STEP   552 IN FLOW TIME STEP     1 STRESS PERIOD     3
      4 TOTAL ITERATIONS
     1 CALLS TO GCG PACKAGE FOR TRANSPORT TIME STEP   553 IN FLOW TIME STEP     1 STRESS PERIOD     3
      4 TOTAL ITERATIONS
     1 CALLS TO GCG PACKAGE FOR TRANSPORT TIME STEP   554 IN FLOW TIME STEP     1 STRESS PERIOD     3
      4 TOTAL ITERATIONS
     1 CALLS TO GCG PACKAGE FOR TRANSPORT TIME STEP   555 IN FLOW TIME STEP     1 STRESS PERIOD     3
      4 TOTAL ITERATIONS
     1 CALLS TO GCG PACKAGE FOR TRANSPORT TIME STEP   556 IN FLOW TIME STEP     1 STRESS PERIOD     3
      4 TOTAL ITERATIONS
     1 CALLS TO GCG PACKAGE FOR TRANSPORT TIME STEP   557 IN FLOW TIME STEP     1 STRESS PERIOD     3
      4 TOTAL ITERATIONS
     1 CALLS TO GCG PACKAGE FOR TRANSPORT TIME STEP   558 IN FLOW TIME STEP     1 STRESS PERIOD     3
      4 TOTAL ITERATIONS
     1 CALLS TO GCG PACKAGE FOR TRANSPORT TIME STEP   559 IN FLOW TIME STEP     1 STRESS PERIOD     3
      4 TOTAL ITERATIONS
     1 CALLS TO GCG PACKAGE FOR TRANSPORT TIME STEP   560 IN FLOW TIME STEP     1 STRESS PERIOD     3
      4 TOTAL ITERATIONS
     1 CALLS TO GCG PACKAGE FOR TRANSPORT TIME STEP   561 IN FLOW TIME STEP     1 STRESS PERIOD     3
      4 TOTAL ITERATIONS
     1 CALLS TO GCG PACKAGE FOR TRANSPORT TIME STEP   562 IN FLOW TIME STEP     1 STRESS PERIOD     3
      4 TOTAL ITERATIONS
     1 CALLS TO GCG PACKAGE FOR TRANSPORT TIME STEP   563 IN FLOW TIME STEP     1 STRESS PERIOD     3
      4 TOTAL ITERATIONS
     1 CALLS TO GCG PACKAGE FOR TRANSPORT TIME STEP   564 IN FLOW TIME STEP     1 STRESS PERIOD     3
      4 TOTAL ITERATIONS
     1 CALLS TO GCG PACKAGE FOR TRANSPORT TIME STEP   565 IN FLOW TIME STEP     1 STRESS PERIOD     3
      4 TOTAL ITERATIONS
     1 CALLS TO GCG PACKAGE FOR TRANSPORT TIME STEP   566 IN FLOW TIME STEP     1 STRESS PERIOD     3
      4 TOTAL ITERATIONS
     1 CALLS TO GCG PACKAGE FOR TRANSPORT TIME STEP   567 IN FLOW TIME STEP     1 STRESS PERIOD     3
      4 TOTAL ITERATIONS
     1 CALLS TO GCG PACKAGE FOR TRANSPORT TIME STEP   568 IN FLOW TIME STEP     1 STRESS PERIOD     3
      4 TOTAL ITERATIONS
     1 CALLS TO GCG PACKAGE FOR TRANSPORT TIME STEP   569 IN FLOW TIME STEP     1 STRESS PERIOD     3
      4 TOTAL ITERATIONS
     1 CALLS TO GCG PACKAGE FOR TRANSPORT TIME STEP   570 IN FLOW TIME STEP     1 STRESS PERIOD     3
      4 TOTAL ITERATIONS
     1 CALLS TO GCG PACKAGE FOR TRANSPORT TIME STEP   571 IN FLOW TIME STEP     1 STRESS PERIOD     3
      4 TOTAL ITERATIONS
     1 CALLS TO GCG PACKAGE FOR TRANSPORT TIME STEP   572 IN FLOW TIME STEP     1 STRESS PERIOD     3
      4 TOTAL ITERATIONS
     1 CALLS TO GCG PACKAGE FOR TRANSPORT TIME STEP   573 IN FLOW TIME STEP     1 STRESS PERIOD     3
      4 TOTAL ITERATIONS
     1 CALLS TO GCG PACKAGE FOR TRANSPORT TIME STEP   574 IN FLOW TIME STEP     1 STRESS PERIOD     3
      4 TOTAL ITERATIONS
     1 CALLS TO GCG PACKAGE FOR TRANSPORT TIME STEP   575 IN FLOW TIME STEP     1 STRESS PERIOD     3
      4 TOTAL ITERATIONS
     1 CALLS TO GCG PACKAGE FOR TRANSPORT TIME STEP   576 IN FLOW TIME STEP     1 STRESS PERIOD     3
      4 TOTAL ITERATIONS
     1 CALLS TO GCG PACKAGE FOR TRANSPORT TIME STEP   577 IN FLOW TIME STEP     1 STRESS PERIOD     3
      4 TOTAL ITERATIONS
     1 CALLS TO GCG PACKAGE FOR TRANSPORT TIME STEP   578 IN FLOW TIME STEP     1 STRESS PERIOD     3
      4 TOTAL ITERATIONS
     1 CALLS TO GCG PACKAGE FOR TRANSPORT TIME STEP   579 IN FLOW TIME STEP     1 STRESS PERIOD     3
      4 TOTAL ITERATIONS
     1 CALLS TO GCG PACKAGE FOR TRANSPORT TIME STEP   580 IN FLOW TIME STEP     1 STRESS PERIOD     3
      4 TOTAL ITERATIONS
     1 CALLS TO GCG PACKAGE FOR TRANSPORT TIME STEP   581 IN FLOW TIME STEP     1 STRESS PERIOD     3
      4 TOTAL ITERATIONS
     1 CALLS TO GCG PACKAGE FOR TRANSPORT TIME STEP   582 IN FLOW TIME STEP     1 STRESS PERIOD     3
      4 TOTAL ITERATIONS
     1 CALLS TO GCG PACKAGE FOR TRANSPORT TIME STEP   583 IN FLOW TIME STEP     1 STRESS PERIOD     3
      4 TOTAL ITERATIONS
     1 CALLS TO GCG PACKAGE FOR TRANSPORT TIME STEP   584 IN FLOW TIME STEP     1 STRESS PERIOD     3
      4 TOTAL ITERATIONS
     1 CALLS TO GCG PACKAGE FOR TRANSPORT TIME STEP   585 IN FLOW TIME STEP     1 STRESS PERIOD     3
      4 TOTAL ITERATIONS
     1 CALLS TO GCG PACKAGE FOR TRANSPORT TIME STEP   586 IN FLOW TIME STEP     1 STRESS PERIOD     3
      4 TOTAL ITERATIONS
     1 CALLS TO GCG PACKAGE FOR TRANSPORT TIME STEP   587 IN FLOW TIME STEP     1 STRESS PERIOD     3
      4 TOTAL ITERATIONS
     1 CALLS TO GCG PACKAGE FOR TRANSPORT TIME STEP   588 IN FLOW TIME STEP     1 STRESS PERIOD     3
      4 TOTAL ITERATIONS
     1 CALLS TO GCG PACKAGE FOR TRANSPORT TIME STEP   589 IN FLOW TIME STEP     1 STRESS PERIOD     3
      4 TOTAL ITERATIONS
     1 CALLS TO GCG PACKAGE FOR TRANSPORT TIME STEP   590 IN FLOW TIME STEP     1 STRESS PERIOD     3
      4 TOTAL ITERATIONS
     1 CALLS TO GCG PACKAGE FOR TRANSPORT TIME STEP   591 IN FLOW TIME STEP     1 STRESS PERIOD     3
      4 TOTAL ITERATIONS
     1 CALLS TO GCG PACKAGE FOR TRANSPORT TIME STEP   592 IN FLOW TIME STEP     1 STRESS PERIOD     3
      4 TOTAL ITERATIONS
     1 CALLS TO GCG PACKAGE FOR TRANSPORT TIME STEP   593 IN FLOW TIME STEP     1 STRESS PERIOD     3
      4 TOTAL ITERATIONS
     1 CALLS TO GCG PACKAGE FOR TRANSPORT TIME STEP   594 IN FLOW TIME STEP     1 STRESS PERIOD     3
      4 TOTAL ITERATIONS
     1 CALLS TO GCG PACKAGE FOR TRANSPORT TIME STEP   595 IN FLOW TIME STEP     1 STRESS PERIOD     3
      4 TOTAL ITERATIONS
     1 CALLS TO GCG PACKAGE FOR TRANSPORT TIME STEP   596 IN FLOW TIME STEP     1 STRESS PERIOD     3
      4 TOTAL ITERATIONS
     1 CALLS TO GCG PACKAGE FOR TRANSPORT TIME STEP   597 IN FLOW TIME STEP     1 STRESS PERIOD     3
      3 TOTAL ITERATIONS



 >>>>>>>>>>>>>>>>>>>>>>>>>>>>>>>>>>>>>>>>>>>>>>>>>>>>>>>FOR COMPONENT NO. 01<<<<<<<<<<<<<<<<<<<<<<<<<<<<<<<<<<<<<<<<<<<<<<<<<<<<<<<


                                            -------------------------------------------
                                                      TRANSPORT STEP NO.  597
                                            -------------------------------------------

 TOTAL ELAPSED TIME SINCE BEGINNING OF SIMULATION =   42.64000    D   
 .....................................................................

                     CUMULATIVE MASS BUDGETS AT END OF TRANSPORT STEP  597, TIME STEP    1, STRESS PERIOD    3
                     -----------------------------------------------------------------------------------------

                                                             IN                           OUT
                                                      ----------------             ----------------
                               CONSTANT CONCENTRATION:    0.000000                    0.000000    
                                        CONSTANT HEAD:    0.000000                  -0.2034690E-01
                                                WELLS:   0.2631529E-01                0.000000    
                               MASS STOR (FLOW MODEL):    0.000000                    0.000000    
                                MASS STORAGE (SOLUTE):   0.1900143E-04              -0.5987671E-02
                            ---------------------------------------------------------------------------
                                              [TOTAL]:   0.2633429E-01 KG           -0.2633457E-01 KG  

                                                          NET (IN - OUT):  -0.2738088E-06
                                                   DISCREPANCY (PERCENT):  -0.1039737E-02
     1 CALLS TO GCG PACKAGE FOR TRANSPORT TIME STEP   598 IN FLOW TIME STEP     1 STRESS PERIOD     3
      4 TOTAL ITERATIONS
     1 CALLS TO GCG PACKAGE FOR TRANSPORT TIME STEP   599 IN FLOW TIME STEP     1 STRESS PERIOD     3
      4 TOTAL ITERATIONS
     1 CALLS TO GCG PACKAGE FOR TRANSPORT TIME STEP   600 IN FLOW TIME STEP     1 STRESS PERIOD     3
      4 TOTAL ITERATIONS
     1 CALLS TO GCG PACKAGE FOR TRANSPORT TIME STEP   601 IN FLOW TIME STEP     1 STRESS PERIOD     3
      4 TOTAL ITERATIONS
     1 CALLS TO GCG PACKAGE FOR TRANSPORT TIME STEP   602 IN FLOW TIME STEP     1 STRESS PERIOD     3
      4 TOTAL ITERATIONS
     1 CALLS TO GCG PACKAGE FOR TRANSPORT TIME STEP   603 IN FLOW TIME STEP     1 STRESS PERIOD     3
      4 TOTAL ITERATIONS
     1 CALLS TO GCG PACKAGE FOR TRANSPORT TIME STEP   604 IN FLOW TIME STEP     1 STRESS PERIOD     3
      4 TOTAL ITERATIONS
     1 CALLS TO GCG PACKAGE FOR TRANSPORT TIME STEP   605 IN FLOW TIME STEP     1 STRESS PERIOD     3
      4 TOTAL ITERATIONS
     1 CALLS TO GCG PACKAGE FOR TRANSPORT TIME STEP   606 IN FLOW TIME STEP     1 STRESS PERIOD     3
      4 TOTAL ITERATIONS
     1 CALLS TO GCG PACKAGE FOR TRANSPORT TIME STEP   607 IN FLOW TIME STEP     1 STRESS PERIOD     3
      4 TOTAL ITERATIONS
     1 CALLS TO GCG PACKAGE FOR TRANSPORT TIME STEP   608 IN FLOW TIME STEP     1 STRESS PERIOD     3
      4 TOTAL ITERATIONS
     1 CALLS TO GCG PACKAGE FOR TRANSPORT TIME STEP   609 IN FLOW TIME STEP     1 STRESS PERIOD     3
      4 TOTAL ITERATIONS
     1 CALLS TO GCG PACKAGE FOR TRANSPORT TIME STEP   610 IN FLOW TIME STEP     1 STRESS PERIOD     3
      4 TOTAL ITERATIONS
     1 CALLS TO GCG PACKAGE FOR TRANSPORT TIME STEP   611 IN FLOW TIME STEP     1 STRESS PERIOD     3
      4 TOTAL ITERATIONS
     1 CALLS TO GCG PACKAGE FOR TRANSPORT TIME STEP   612 IN FLOW TIME STEP     1 STRESS PERIOD     3
      4 TOTAL ITERATIONS
     1 CALLS TO GCG PACKAGE FOR TRANSPORT TIME STEP   613 IN FLOW TIME STEP     1 STRESS PERIOD     3
      4 TOTAL ITERATIONS
     1 CALLS TO GCG PACKAGE FOR TRANSPORT TIME STEP   614 IN FLOW TIME STEP     1 STRESS PERIOD     3
      4 TOTAL ITERATIONS
     1 CALLS TO GCG PACKAGE FOR TRANSPORT TIME STEP   615 IN FLOW TIME STEP     1 STRESS PERIOD     3
      4 TOTAL ITERATIONS
     1 CALLS TO GCG PACKAGE FOR TRANSPORT TIME STEP   616 IN FLOW TIME STEP     1 STRESS PERIOD     3
      4 TOTAL ITERATIONS
     1 CALLS TO GCG PACKAGE FOR TRANSPORT TIME STEP   617 IN FLOW TIME STEP     1 STRESS PERIOD     3
      4 TOTAL ITERATIONS
     1 CALLS TO GCG PACKAGE FOR TRANSPORT TIME STEP   618 IN FLOW TIME STEP     1 STRESS PERIOD     3
      4 TOTAL ITERATIONS
     1 CALLS TO GCG PACKAGE FOR TRANSPORT TIME STEP   619 IN FLOW TIME STEP     1 STRESS PERIOD     3
      4 TOTAL ITERATIONS
     1 CALLS TO GCG PACKAGE FOR TRANSPORT TIME STEP   620 IN FLOW TIME STEP     1 STRESS PERIOD     3
      4 TOTAL ITERATIONS
     1 CALLS TO GCG PACKAGE FOR TRANSPORT TIME STEP   621 IN FLOW TIME STEP     1 STRESS PERIOD     3
      4 TOTAL ITERATIONS
     1 CALLS TO GCG PACKAGE FOR TRANSPORT TIME STEP   622 IN FLOW TIME STEP     1 STRESS PERIOD     3
      4 TOTAL ITERATIONS
     1 CALLS TO GCG PACKAGE FOR TRANSPORT TIME STEP   623 IN FLOW TIME STEP     1 STRESS PERIOD     3
      4 TOTAL ITERATIONS
     1 CALLS TO GCG PACKAGE FOR TRANSPORT TIME STEP   624 IN FLOW TIME STEP     1 STRESS PERIOD     3
      4 TOTAL ITERATIONS
     1 CALLS TO GCG PACKAGE FOR TRANSPORT TIME STEP   625 IN FLOW TIME STEP     1 STRESS PERIOD     3
      4 TOTAL ITERATIONS
     1 CALLS TO GCG PACKAGE FOR TRANSPORT TIME STEP   626 IN FLOW TIME STEP     1 STRESS PERIOD     3
      4 TOTAL ITERATIONS
     1 CALLS TO GCG PACKAGE FOR TRANSPORT TIME STEP   627 IN FLOW TIME STEP     1 STRESS PERIOD     3
      4 TOTAL ITERATIONS
     1 CALLS TO GCG PACKAGE FOR TRANSPORT TIME STEP   628 IN FLOW TIME STEP     1 STRESS PERIOD     3
      4 TOTAL ITERATIONS
     1 CALLS TO GCG PACKAGE FOR TRANSPORT TIME STEP   629 IN FLOW TIME STEP     1 STRESS PERIOD     3
      4 TOTAL ITERATIONS
     1 CALLS TO GCG PACKAGE FOR TRANSPORT TIME STEP   630 IN FLOW TIME STEP     1 STRESS PERIOD     3
      4 TOTAL ITERATIONS
     1 CALLS TO GCG PACKAGE FOR TRANSPORT TIME STEP   631 IN FLOW TIME STEP     1 STRESS PERIOD     3
      4 TOTAL ITERATIONS
     1 CALLS TO GCG PACKAGE FOR TRANSPORT TIME STEP   632 IN FLOW TIME STEP     1 STRESS PERIOD     3
      4 TOTAL ITERATIONS
     1 CALLS TO GCG PACKAGE FOR TRANSPORT TIME STEP   633 IN FLOW TIME STEP     1 STRESS PERIOD     3
      4 TOTAL ITERATIONS
     1 CALLS TO GCG PACKAGE FOR TRANSPORT TIME STEP   634 IN FLOW TIME STEP     1 STRESS PERIOD     3
      4 TOTAL ITERATIONS
     1 CALLS TO GCG PACKAGE FOR TRANSPORT TIME STEP   635 IN FLOW TIME STEP     1 STRESS PERIOD     3
      4 TOTAL ITERATIONS
     1 CALLS TO GCG PACKAGE FOR TRANSPORT TIME STEP   636 IN FLOW TIME STEP     1 STRESS PERIOD     3
      4 TOTAL ITERATIONS
     1 CALLS TO GCG PACKAGE FOR TRANSPORT TIME STEP   637 IN FLOW TIME STEP     1 STRESS PERIOD     3
      4 TOTAL ITERATIONS
     1 CALLS TO GCG PACKAGE FOR TRANSPORT TIME STEP   638 IN FLOW TIME STEP     1 STRESS PERIOD     3
      4 TOTAL ITERATIONS
     1 CALLS TO GCG PACKAGE FOR TRANSPORT TIME STEP   639 IN FLOW TIME STEP     1 STRESS PERIOD     3
      4 TOTAL ITERATIONS
     1 CALLS TO GCG PACKAGE FOR TRANSPORT TIME STEP   640 IN FLOW TIME STEP     1 STRESS PERIOD     3
      4 TOTAL ITERATIONS
     1 CALLS TO GCG PACKAGE FOR TRANSPORT TIME STEP   641 IN FLOW TIME STEP     1 STRESS PERIOD     3
      4 TOTAL ITERATIONS
     1 CALLS TO GCG PACKAGE FOR TRANSPORT TIME STEP   642 IN FLOW TIME STEP     1 STRESS PERIOD     3
      4 TOTAL ITERATIONS
     1 CALLS TO GCG PACKAGE FOR TRANSPORT TIME STEP   643 IN FLOW TIME STEP     1 STRESS PERIOD     3
      3 TOTAL ITERATIONS



 >>>>>>>>>>>>>>>>>>>>>>>>>>>>>>>>>>>>>>>>>>>>>>>>>>>>>>>FOR COMPONENT NO. 01<<<<<<<<<<<<<<<<<<<<<<<<<<<<<<<<<<<<<<<<<<<<<<<<<<<<<<<


                                            -------------------------------------------
                                                      TRANSPORT STEP NO.  643
                                            -------------------------------------------

 TOTAL ELAPSED TIME SINCE BEGINNING OF SIMULATION =   43.46000    D   
 .....................................................................

                     CUMULATIVE MASS BUDGETS AT END OF TRANSPORT STEP  643, TIME STEP    1, STRESS PERIOD    3
                     -----------------------------------------------------------------------------------------

                                                             IN                           OUT
                                                      ----------------             ----------------
                               CONSTANT CONCENTRATION:    0.000000                    0.000000    
                                        CONSTANT HEAD:    0.000000                  -0.2084716E-01
                                                WELLS:   0.2682135E-01                0.000000    
                               MASS STOR (FLOW MODEL):    0.000000                    0.000000    
                                MASS STORAGE (SOLUTE):   0.1902497E-04              -0.5993460E-02
                            ---------------------------------------------------------------------------
                                              [TOTAL]:   0.2684038E-01 KG           -0.2684062E-01 KG  

                                                          NET (IN - OUT):  -0.2440065E-06
                                                   DISCREPANCY (PERCENT):  -0.9090982E-03
     1 CALLS TO GCG PACKAGE FOR TRANSPORT TIME STEP   644 IN FLOW TIME STEP     1 STRESS PERIOD     3
      4 TOTAL ITERATIONS
     1 CALLS TO GCG PACKAGE FOR TRANSPORT TIME STEP   645 IN FLOW TIME STEP     1 STRESS PERIOD     3
      4 TOTAL ITERATIONS
     1 CALLS TO GCG PACKAGE FOR TRANSPORT TIME STEP   646 IN FLOW TIME STEP     1 STRESS PERIOD     3
      4 TOTAL ITERATIONS
     1 CALLS TO GCG PACKAGE FOR TRANSPORT TIME STEP   647 IN FLOW TIME STEP     1 STRESS PERIOD     3
      4 TOTAL ITERATIONS
     1 CALLS TO GCG PACKAGE FOR TRANSPORT TIME STEP   648 IN FLOW TIME STEP     1 STRESS PERIOD     3
      4 TOTAL ITERATIONS
     1 CALLS TO GCG PACKAGE FOR TRANSPORT TIME STEP   649 IN FLOW TIME STEP     1 STRESS PERIOD     3
      4 TOTAL ITERATIONS
     1 CALLS TO GCG PACKAGE FOR TRANSPORT TIME STEP   650 IN FLOW TIME STEP     1 STRESS PERIOD     3
      4 TOTAL ITERATIONS
     1 CALLS TO GCG PACKAGE FOR TRANSPORT TIME STEP   651 IN FLOW TIME STEP     1 STRESS PERIOD     3
      4 TOTAL ITERATIONS
     1 CALLS TO GCG PACKAGE FOR TRANSPORT TIME STEP   652 IN FLOW TIME STEP     1 STRESS PERIOD     3
      4 TOTAL ITERATIONS
     1 CALLS TO GCG PACKAGE FOR TRANSPORT TIME STEP   653 IN FLOW TIME STEP     1 STRESS PERIOD     3
      4 TOTAL ITERATIONS
     1 CALLS TO GCG PACKAGE FOR TRANSPORT TIME STEP   654 IN FLOW TIME STEP     1 STRESS PERIOD     3
      4 TOTAL ITERATIONS
     1 CALLS TO GCG PACKAGE FOR TRANSPORT TIME STEP   655 IN FLOW TIME STEP     1 STRESS PERIOD     3
      4 TOTAL ITERATIONS
     1 CALLS TO GCG PACKAGE FOR TRANSPORT TIME STEP   656 IN FLOW TIME STEP     1 STRESS PERIOD     3
      4 TOTAL ITERATIONS
     1 CALLS TO GCG PACKAGE FOR TRANSPORT TIME STEP   657 IN FLOW TIME STEP     1 STRESS PERIOD     3
      4 TOTAL ITERATIONS
     1 CALLS TO GCG PACKAGE FOR TRANSPORT TIME STEP   658 IN FLOW TIME STEP     1 STRESS PERIOD     3
      4 TOTAL ITERATIONS
     1 CALLS TO GCG PACKAGE FOR TRANSPORT TIME STEP   659 IN FLOW TIME STEP     1 STRESS PERIOD     3
      4 TOTAL ITERATIONS
     1 CALLS TO GCG PACKAGE FOR TRANSPORT TIME STEP   660 IN FLOW TIME STEP     1 STRESS PERIOD     3
      4 TOTAL ITERATIONS
     1 CALLS TO GCG PACKAGE FOR TRANSPORT TIME STEP   661 IN FLOW TIME STEP     1 STRESS PERIOD     3
      4 TOTAL ITERATIONS
     1 CALLS TO GCG PACKAGE FOR TRANSPORT TIME STEP   662 IN FLOW TIME STEP     1 STRESS PERIOD     3
      4 TOTAL ITERATIONS
     1 CALLS TO GCG PACKAGE FOR TRANSPORT TIME STEP   663 IN FLOW TIME STEP     1 STRESS PERIOD     3
      4 TOTAL ITERATIONS
     1 CALLS TO GCG PACKAGE FOR TRANSPORT TIME STEP   664 IN FLOW TIME STEP     1 STRESS PERIOD     3
      4 TOTAL ITERATIONS
     1 CALLS TO GCG PACKAGE FOR TRANSPORT TIME STEP   665 IN FLOW TIME STEP     1 STRESS PERIOD     3
      4 TOTAL ITERATIONS
     1 CALLS TO GCG PACKAGE FOR TRANSPORT TIME STEP   666 IN FLOW TIME STEP     1 STRESS PERIOD     3
      4 TOTAL ITERATIONS
     1 CALLS TO GCG PACKAGE FOR TRANSPORT TIME STEP   667 IN FLOW TIME STEP     1 STRESS PERIOD     3
      4 TOTAL ITERATIONS
     1 CALLS TO GCG PACKAGE FOR TRANSPORT TIME STEP   668 IN FLOW TIME STEP     1 STRESS PERIOD     3
      4 TOTAL ITERATIONS
     1 CALLS TO GCG PACKAGE FOR TRANSPORT TIME STEP   669 IN FLOW TIME STEP     1 STRESS PERIOD     3
      4 TOTAL ITERATIONS
     1 CALLS TO GCG PACKAGE FOR TRANSPORT TIME STEP   670 IN FLOW TIME STEP     1 STRESS PERIOD     3
      4 TOTAL ITERATIONS
     1 CALLS TO GCG PACKAGE FOR TRANSPORT TIME STEP   671 IN FLOW TIME STEP     1 STRESS PERIOD     3
      4 TOTAL ITERATIONS
     1 CALLS TO GCG PACKAGE FOR TRANSPORT TIME STEP   672 IN FLOW TIME STEP     1 STRESS PERIOD     3
      4 TOTAL ITERATIONS
     1 CALLS TO GCG PACKAGE FOR TRANSPORT TIME STEP   673 IN FLOW TIME STEP     1 STRESS PERIOD     3
      4 TOTAL ITERATIONS
     1 CALLS TO GCG PACKAGE FOR TRANSPORT TIME STEP   674 IN FLOW TIME STEP     1 STRESS PERIOD     3
      4 TOTAL ITERATIONS
     1 CALLS TO GCG PACKAGE FOR TRANSPORT TIME STEP   675 IN FLOW TIME STEP     1 STRESS PERIOD     3
      4 TOTAL ITERATIONS
     1 CALLS TO GCG PACKAGE FOR TRANSPORT TIME STEP   676 IN FLOW TIME STEP     1 STRESS PERIOD     3
      4 TOTAL ITERATIONS
     1 CALLS TO GCG PACKAGE FOR TRANSPORT TIME STEP   677 IN FLOW TIME STEP     1 STRESS PERIOD     3
      4 TOTAL ITERATIONS
     1 CALLS TO GCG PACKAGE FOR TRANSPORT TIME STEP   678 IN FLOW TIME STEP     1 STRESS PERIOD     3
      4 TOTAL ITERATIONS
     1 CALLS TO GCG PACKAGE FOR TRANSPORT TIME STEP   679 IN FLOW TIME STEP     1 STRESS PERIOD     3
      4 TOTAL ITERATIONS
     1 CALLS TO GCG PACKAGE FOR TRANSPORT TIME STEP   680 IN FLOW TIME STEP     1 STRESS PERIOD     3
      4 TOTAL ITERATIONS
     1 CALLS TO GCG PACKAGE FOR TRANSPORT TIME STEP   681 IN FLOW TIME STEP     1 STRESS PERIOD     3
      4 TOTAL ITERATIONS
     1 CALLS TO GCG PACKAGE FOR TRANSPORT TIME STEP   682 IN FLOW TIME STEP     1 STRESS PERIOD     3
      4 TOTAL ITERATIONS
     1 CALLS TO GCG PACKAGE FOR TRANSPORT TIME STEP   683 IN FLOW TIME STEP     1 STRESS PERIOD     3
      4 TOTAL ITERATIONS
     1 CALLS TO GCG PACKAGE FOR TRANSPORT TIME STEP   684 IN FLOW TIME STEP     1 STRESS PERIOD     3
      4 TOTAL ITERATIONS
     1 CALLS TO GCG PACKAGE FOR TRANSPORT TIME STEP   685 IN FLOW TIME STEP     1 STRESS PERIOD     3
      4 TOTAL ITERATIONS
     1 CALLS TO GCG PACKAGE FOR TRANSPORT TIME STEP   686 IN FLOW TIME STEP     1 STRESS PERIOD     3
      4 TOTAL ITERATIONS
     1 CALLS TO GCG PACKAGE FOR TRANSPORT TIME STEP   687 IN FLOW TIME STEP     1 STRESS PERIOD     3
      4 TOTAL ITERATIONS
     1 CALLS TO GCG PACKAGE FOR TRANSPORT TIME STEP   688 IN FLOW TIME STEP     1 STRESS PERIOD     3
      4 TOTAL ITERATIONS
     1 CALLS TO GCG PACKAGE FOR TRANSPORT TIME STEP   689 IN FLOW TIME STEP     1 STRESS PERIOD     3
      3 TOTAL ITERATIONS



 >>>>>>>>>>>>>>>>>>>>>>>>>>>>>>>>>>>>>>>>>>>>>>>>>>>>>>>FOR COMPONENT NO. 01<<<<<<<<<<<<<<<<<<<<<<<<<<<<<<<<<<<<<<<<<<<<<<<<<<<<<<<


                                            -------------------------------------------
                                                      TRANSPORT STEP NO.  689
                                            -------------------------------------------

 TOTAL ELAPSED TIME SINCE BEGINNING OF SIMULATION =   44.28000    D   
 .....................................................................

                     CUMULATIVE MASS BUDGETS AT END OF TRANSPORT STEP  689, TIME STEP    1, STRESS PERIOD    3
                     -----------------------------------------------------------------------------------------

                                                             IN                           OUT
                                                      ----------------             ----------------
                               CONSTANT CONCENTRATION:    0.000000                    0.000000    
                                        CONSTANT HEAD:    0.000000                  -0.2134778E-01
                                                WELLS:   0.2732742E-01                0.000000    
                               MASS STOR (FLOW MODEL):    0.000000                    0.000000    
                                MASS STORAGE (SOLUTE):   0.1904864E-04              -0.5998899E-02
                            ---------------------------------------------------------------------------
                                              [TOTAL]:   0.2734647E-01 KG           -0.2734668E-01 KG  

                                                          NET (IN - OUT):  -0.2123415E-06
                                                   DISCREPANCY (PERCENT):  -0.7764832E-03
     1 CALLS TO GCG PACKAGE FOR TRANSPORT TIME STEP   690 IN FLOW TIME STEP     1 STRESS PERIOD     3
      4 TOTAL ITERATIONS
     1 CALLS TO GCG PACKAGE FOR TRANSPORT TIME STEP   691 IN FLOW TIME STEP     1 STRESS PERIOD     3
      4 TOTAL ITERATIONS
     1 CALLS TO GCG PACKAGE FOR TRANSPORT TIME STEP   692 IN FLOW TIME STEP     1 STRESS PERIOD     3
      4 TOTAL ITERATIONS
     1 CALLS TO GCG PACKAGE FOR TRANSPORT TIME STEP   693 IN FLOW TIME STEP     1 STRESS PERIOD     3
      4 TOTAL ITERATIONS
     1 CALLS TO GCG PACKAGE FOR TRANSPORT TIME STEP   694 IN FLOW TIME STEP     1 STRESS PERIOD     3
      4 TOTAL ITERATIONS
     1 CALLS TO GCG PACKAGE FOR TRANSPORT TIME STEP   695 IN FLOW TIME STEP     1 STRESS PERIOD     3
      4 TOTAL ITERATIONS
     1 CALLS TO GCG PACKAGE FOR TRANSPORT TIME STEP   696 IN FLOW TIME STEP     1 STRESS PERIOD     3
      4 TOTAL ITERATIONS
     1 CALLS TO GCG PACKAGE FOR TRANSPORT TIME STEP   697 IN FLOW TIME STEP     1 STRESS PERIOD     3
      4 TOTAL ITERATIONS
     1 CALLS TO GCG PACKAGE FOR TRANSPORT TIME STEP   698 IN FLOW TIME STEP     1 STRESS PERIOD     3
      4 TOTAL ITERATIONS
     1 CALLS TO GCG PACKAGE FOR TRANSPORT TIME STEP   699 IN FLOW TIME STEP     1 STRESS PERIOD     3
      4 TOTAL ITERATIONS
     1 CALLS TO GCG PACKAGE FOR TRANSPORT TIME STEP   700 IN FLOW TIME STEP     1 STRESS PERIOD     3
      4 TOTAL ITERATIONS
     1 CALLS TO GCG PACKAGE FOR TRANSPORT TIME STEP   701 IN FLOW TIME STEP     1 STRESS PERIOD     3
      4 TOTAL ITERATIONS
     1 CALLS TO GCG PACKAGE FOR TRANSPORT TIME STEP   702 IN FLOW TIME STEP     1 STRESS PERIOD     3
      4 TOTAL ITERATIONS
     1 CALLS TO GCG PACKAGE FOR TRANSPORT TIME STEP   703 IN FLOW TIME STEP     1 STRESS PERIOD     3
      4 TOTAL ITERATIONS
     1 CALLS TO GCG PACKAGE FOR TRANSPORT TIME STEP   704 IN FLOW TIME STEP     1 STRESS PERIOD     3
      4 TOTAL ITERATIONS
     1 CALLS TO GCG PACKAGE FOR TRANSPORT TIME STEP   705 IN FLOW TIME STEP     1 STRESS PERIOD     3
      4 TOTAL ITERATIONS
     1 CALLS TO GCG PACKAGE FOR TRANSPORT TIME STEP   706 IN FLOW TIME STEP     1 STRESS PERIOD     3
      4 TOTAL ITERATIONS
     1 CALLS TO GCG PACKAGE FOR TRANSPORT TIME STEP   707 IN FLOW TIME STEP     1 STRESS PERIOD     3
      4 TOTAL ITERATIONS
     1 CALLS TO GCG PACKAGE FOR TRANSPORT TIME STEP   708 IN FLOW TIME STEP     1 STRESS PERIOD     3
      4 TOTAL ITERATIONS
     1 CALLS TO GCG PACKAGE FOR TRANSPORT TIME STEP   709 IN FLOW TIME STEP     1 STRESS PERIOD     3
      4 TOTAL ITERATIONS
     1 CALLS TO GCG PACKAGE FOR TRANSPORT TIME STEP   710 IN FLOW TIME STEP     1 STRESS PERIOD     3
      4 TOTAL ITERATIONS
     1 CALLS TO GCG PACKAGE FOR TRANSPORT TIME STEP   711 IN FLOW TIME STEP     1 STRESS PERIOD     3
      4 TOTAL ITERATIONS
     1 CALLS TO GCG PACKAGE FOR TRANSPORT TIME STEP   712 IN FLOW TIME STEP     1 STRESS PERIOD     3
      4 TOTAL ITERATIONS
     1 CALLS TO GCG PACKAGE FOR TRANSPORT TIME STEP   713 IN FLOW TIME STEP     1 STRESS PERIOD     3
      4 TOTAL ITERATIONS
     1 CALLS TO GCG PACKAGE FOR TRANSPORT TIME STEP   714 IN FLOW TIME STEP     1 STRESS PERIOD     3
      4 TOTAL ITERATIONS
     1 CALLS TO GCG PACKAGE FOR TRANSPORT TIME STEP   715 IN FLOW TIME STEP     1 STRESS PERIOD     3
      4 TOTAL ITERATIONS
     1 CALLS TO GCG PACKAGE FOR TRANSPORT TIME STEP   716 IN FLOW TIME STEP     1 STRESS PERIOD     3
      4 TOTAL ITERATIONS
     1 CALLS TO GCG PACKAGE FOR TRANSPORT TIME STEP   717 IN FLOW TIME STEP     1 STRESS PERIOD     3
      4 TOTAL ITERATIONS
     1 CALLS TO GCG PACKAGE FOR TRANSPORT TIME STEP   718 IN FLOW TIME STEP     1 STRESS PERIOD     3
      4 TOTAL ITERATIONS
     1 CALLS TO GCG PACKAGE FOR TRANSPORT TIME STEP   719 IN FLOW TIME STEP     1 STRESS PERIOD     3
      4 TOTAL ITERATIONS
     1 CALLS TO GCG PACKAGE FOR TRANSPORT TIME STEP   720 IN FLOW TIME STEP     1 STRESS PERIOD     3
      4 TOTAL ITERATIONS
     1 CALLS TO GCG PACKAGE FOR TRANSPORT TIME STEP   721 IN FLOW TIME STEP     1 STRESS PERIOD     3
      4 TOTAL ITERATIONS
     1 CALLS TO GCG PACKAGE FOR TRANSPORT TIME STEP   722 IN FLOW TIME STEP     1 STRESS PERIOD     3
      4 TOTAL ITERATIONS
     1 CALLS TO GCG PACKAGE FOR TRANSPORT TIME STEP   723 IN FLOW TIME STEP     1 STRESS PERIOD     3
      4 TOTAL ITERATIONS
     1 CALLS TO GCG PACKAGE FOR TRANSPORT TIME STEP   724 IN FLOW TIME STEP     1 STRESS PERIOD     3
      4 TOTAL ITERATIONS
     1 CALLS TO GCG PACKAGE FOR TRANSPORT TIME STEP   725 IN FLOW TIME STEP     1 STRESS PERIOD     3
      4 TOTAL ITERATIONS
     1 CALLS TO GCG PACKAGE FOR TRANSPORT TIME STEP   726 IN FLOW TIME STEP     1 STRESS PERIOD     3
      4 TOTAL ITERATIONS
     1 CALLS TO GCG PACKAGE FOR TRANSPORT TIME STEP   727 IN FLOW TIME STEP     1 STRESS PERIOD     3
      4 TOTAL ITERATIONS
     1 CALLS TO GCG PACKAGE FOR TRANSPORT TIME STEP   728 IN FLOW TIME STEP     1 STRESS PERIOD     3
      4 TOTAL ITERATIONS
     1 CALLS TO GCG PACKAGE FOR TRANSPORT TIME STEP   729 IN FLOW TIME STEP     1 STRESS PERIOD     3
      4 TOTAL ITERATIONS
     1 CALLS TO GCG PACKAGE FOR TRANSPORT TIME STEP   730 IN FLOW TIME STEP     1 STRESS PERIOD     3
      4 TOTAL ITERATIONS
     1 CALLS TO GCG PACKAGE FOR TRANSPORT TIME STEP   731 IN FLOW TIME STEP     1 STRESS PERIOD     3
      4 TOTAL ITERATIONS
     1 CALLS TO GCG PACKAGE FOR TRANSPORT TIME STEP   732 IN FLOW TIME STEP     1 STRESS PERIOD     3
      4 TOTAL ITERATIONS
     1 CALLS TO GCG PACKAGE FOR TRANSPORT TIME STEP   733 IN FLOW TIME STEP     1 STRESS PERIOD     3
      4 TOTAL ITERATIONS
     1 CALLS TO GCG PACKAGE FOR TRANSPORT TIME STEP   734 IN FLOW TIME STEP     1 STRESS PERIOD     3
      4 TOTAL ITERATIONS
     1 CALLS TO GCG PACKAGE FOR TRANSPORT TIME STEP   735 IN FLOW TIME STEP     1 STRESS PERIOD     3
      3 TOTAL ITERATIONS



 >>>>>>>>>>>>>>>>>>>>>>>>>>>>>>>>>>>>>>>>>>>>>>>>>>>>>>>FOR COMPONENT NO. 01<<<<<<<<<<<<<<<<<<<<<<<<<<<<<<<<<<<<<<<<<<<<<<<<<<<<<<<


                                            -------------------------------------------
                                                      TRANSPORT STEP NO.  735
                                            -------------------------------------------

 TOTAL ELAPSED TIME SINCE BEGINNING OF SIMULATION =   45.10000    D   
 .....................................................................

                     CUMULATIVE MASS BUDGETS AT END OF TRANSPORT STEP  735, TIME STEP    1, STRESS PERIOD    3
                     -----------------------------------------------------------------------------------------

                                                             IN                           OUT
                                                      ----------------             ----------------
                               CONSTANT CONCENTRATION:    0.000000                    0.000000    
                                        CONSTANT HEAD:    0.000000                  -0.2184873E-01
                                                WELLS:   0.2783348E-01                0.000000    
                               MASS STOR (FLOW MODEL):    0.000000                    0.000000    
                                MASS STORAGE (SOLUTE):   0.1907248E-04              -0.6004008E-02
                            ---------------------------------------------------------------------------
                                              [TOTAL]:   0.2785255E-01 KG           -0.2785273E-01 KG  

                                                          NET (IN - OUT):  -0.1825392E-06
                                                   DISCREPANCY (PERCENT):  -0.6553749E-03
     1 CALLS TO GCG PACKAGE FOR TRANSPORT TIME STEP   736 IN FLOW TIME STEP     1 STRESS PERIOD     3
      4 TOTAL ITERATIONS
     1 CALLS TO GCG PACKAGE FOR TRANSPORT TIME STEP   737 IN FLOW TIME STEP     1 STRESS PERIOD     3
      4 TOTAL ITERATIONS
     1 CALLS TO GCG PACKAGE FOR TRANSPORT TIME STEP   738 IN FLOW TIME STEP     1 STRESS PERIOD     3
      4 TOTAL ITERATIONS
     1 CALLS TO GCG PACKAGE FOR TRANSPORT TIME STEP   739 IN FLOW TIME STEP     1 STRESS PERIOD     3
      4 TOTAL ITERATIONS
     1 CALLS TO GCG PACKAGE FOR TRANSPORT TIME STEP   740 IN FLOW TIME STEP     1 STRESS PERIOD     3
      4 TOTAL ITERATIONS
     1 CALLS TO GCG PACKAGE FOR TRANSPORT TIME STEP   741 IN FLOW TIME STEP     1 STRESS PERIOD     3
      4 TOTAL ITERATIONS
     1 CALLS TO GCG PACKAGE FOR TRANSPORT TIME STEP   742 IN FLOW TIME STEP     1 STRESS PERIOD     3
      4 TOTAL ITERATIONS
     1 CALLS TO GCG PACKAGE FOR TRANSPORT TIME STEP   743 IN FLOW TIME STEP     1 STRESS PERIOD     3
      4 TOTAL ITERATIONS
     1 CALLS TO GCG PACKAGE FOR TRANSPORT TIME STEP   744 IN FLOW TIME STEP     1 STRESS PERIOD     3
      4 TOTAL ITERATIONS
     1 CALLS TO GCG PACKAGE FOR TRANSPORT TIME STEP   745 IN FLOW TIME STEP     1 STRESS PERIOD     3
      4 TOTAL ITERATIONS
     1 CALLS TO GCG PACKAGE FOR TRANSPORT TIME STEP   746 IN FLOW TIME STEP     1 STRESS PERIOD     3
      4 TOTAL ITERATIONS
     1 CALLS TO GCG PACKAGE FOR TRANSPORT TIME STEP   747 IN FLOW TIME STEP     1 STRESS PERIOD     3
      4 TOTAL ITERATIONS
     1 CALLS TO GCG PACKAGE FOR TRANSPORT TIME STEP   748 IN FLOW TIME STEP     1 STRESS PERIOD     3
      4 TOTAL ITERATIONS
     1 CALLS TO GCG PACKAGE FOR TRANSPORT TIME STEP   749 IN FLOW TIME STEP     1 STRESS PERIOD     3
      4 TOTAL ITERATIONS
     1 CALLS TO GCG PACKAGE FOR TRANSPORT TIME STEP   750 IN FLOW TIME STEP     1 STRESS PERIOD     3
      4 TOTAL ITERATIONS
     1 CALLS TO GCG PACKAGE FOR TRANSPORT TIME STEP   751 IN FLOW TIME STEP     1 STRESS PERIOD     3
      4 TOTAL ITERATIONS
     1 CALLS TO GCG PACKAGE FOR TRANSPORT TIME STEP   752 IN FLOW TIME STEP     1 STRESS PERIOD     3
      4 TOTAL ITERATIONS
     1 CALLS TO GCG PACKAGE FOR TRANSPORT TIME STEP   753 IN FLOW TIME STEP     1 STRESS PERIOD     3
      4 TOTAL ITERATIONS
     1 CALLS TO GCG PACKAGE FOR TRANSPORT TIME STEP   754 IN FLOW TIME STEP     1 STRESS PERIOD     3
      4 TOTAL ITERATIONS
     1 CALLS TO GCG PACKAGE FOR TRANSPORT TIME STEP   755 IN FLOW TIME STEP     1 STRESS PERIOD     3
      4 TOTAL ITERATIONS
     1 CALLS TO GCG PACKAGE FOR TRANSPORT TIME STEP   756 IN FLOW TIME STEP     1 STRESS PERIOD     3
      4 TOTAL ITERATIONS
     1 CALLS TO GCG PACKAGE FOR TRANSPORT TIME STEP   757 IN FLOW TIME STEP     1 STRESS PERIOD     3
      4 TOTAL ITERATIONS
     1 CALLS TO GCG PACKAGE FOR TRANSPORT TIME STEP   758 IN FLOW TIME STEP     1 STRESS PERIOD     3
      4 TOTAL ITERATIONS
     1 CALLS TO GCG PACKAGE FOR TRANSPORT TIME STEP   759 IN FLOW TIME STEP     1 STRESS PERIOD     3
      4 TOTAL ITERATIONS
     1 CALLS TO GCG PACKAGE FOR TRANSPORT TIME STEP   760 IN FLOW TIME STEP     1 STRESS PERIOD     3
      4 TOTAL ITERATIONS
     1 CALLS TO GCG PACKAGE FOR TRANSPORT TIME STEP   761 IN FLOW TIME STEP     1 STRESS PERIOD     3
      4 TOTAL ITERATIONS
     1 CALLS TO GCG PACKAGE FOR TRANSPORT TIME STEP   762 IN FLOW TIME STEP     1 STRESS PERIOD     3
      4 TOTAL ITERATIONS
     1 CALLS TO GCG PACKAGE FOR TRANSPORT TIME STEP   763 IN FLOW TIME STEP     1 STRESS PERIOD     3
      4 TOTAL ITERATIONS
     1 CALLS TO GCG PACKAGE FOR TRANSPORT TIME STEP   764 IN FLOW TIME STEP     1 STRESS PERIOD     3
      4 TOTAL ITERATIONS
     1 CALLS TO GCG PACKAGE FOR TRANSPORT TIME STEP   765 IN FLOW TIME STEP     1 STRESS PERIOD     3
      4 TOTAL ITERATIONS
     1 CALLS TO GCG PACKAGE FOR TRANSPORT TIME STEP   766 IN FLOW TIME STEP     1 STRESS PERIOD     3
      4 TOTAL ITERATIONS
     1 CALLS TO GCG PACKAGE FOR TRANSPORT TIME STEP   767 IN FLOW TIME STEP     1 STRESS PERIOD     3
      4 TOTAL ITERATIONS
     1 CALLS TO GCG PACKAGE FOR TRANSPORT TIME STEP   768 IN FLOW TIME STEP     1 STRESS PERIOD     3
      4 TOTAL ITERATIONS
     1 CALLS TO GCG PACKAGE FOR TRANSPORT TIME STEP   769 IN FLOW TIME STEP     1 STRESS PERIOD     3
      4 TOTAL ITERATIONS
     1 CALLS TO GCG PACKAGE FOR TRANSPORT TIME STEP   770 IN FLOW TIME STEP     1 STRESS PERIOD     3
      4 TOTAL ITERATIONS
     1 CALLS TO GCG PACKAGE FOR TRANSPORT TIME STEP   771 IN FLOW TIME STEP     1 STRESS PERIOD     3
      4 TOTAL ITERATIONS
     1 CALLS TO GCG PACKAGE FOR TRANSPORT TIME STEP   772 IN FLOW TIME STEP     1 STRESS PERIOD     3
      4 TOTAL ITERATIONS
     1 CALLS TO GCG PACKAGE FOR TRANSPORT TIME STEP   773 IN FLOW TIME STEP     1 STRESS PERIOD     3
      4 TOTAL ITERATIONS
     1 CALLS TO GCG PACKAGE FOR TRANSPORT TIME STEP   774 IN FLOW TIME STEP     1 STRESS PERIOD     3
      4 TOTAL ITERATIONS
     1 CALLS TO GCG PACKAGE FOR TRANSPORT TIME STEP   775 IN FLOW TIME STEP     1 STRESS PERIOD     3
      4 TOTAL ITERATIONS
     1 CALLS TO GCG PACKAGE FOR TRANSPORT TIME STEP   776 IN FLOW TIME STEP     1 STRESS PERIOD     3
      4 TOTAL ITERATIONS
     1 CALLS TO GCG PACKAGE FOR TRANSPORT TIME STEP   777 IN FLOW TIME STEP     1 STRESS PERIOD     3
      4 TOTAL ITERATIONS
     1 CALLS TO GCG PACKAGE FOR TRANSPORT TIME STEP   778 IN FLOW TIME STEP     1 STRESS PERIOD     3
      4 TOTAL ITERATIONS
     1 CALLS TO GCG PACKAGE FOR TRANSPORT TIME STEP   779 IN FLOW TIME STEP     1 STRESS PERIOD     3
      4 TOTAL ITERATIONS
     1 CALLS TO GCG PACKAGE FOR TRANSPORT TIME STEP   780 IN FLOW TIME STEP     1 STRESS PERIOD     3
      4 TOTAL ITERATIONS
     1 CALLS TO GCG PACKAGE FOR TRANSPORT TIME STEP   781 IN FLOW TIME STEP     1 STRESS PERIOD     3
      3 TOTAL ITERATIONS



 >>>>>>>>>>>>>>>>>>>>>>>>>>>>>>>>>>>>>>>>>>>>>>>>>>>>>>>FOR COMPONENT NO. 01<<<<<<<<<<<<<<<<<<<<<<<<<<<<<<<<<<<<<<<<<<<<<<<<<<<<<<<


                                            -------------------------------------------
                                                      TRANSPORT STEP NO.  781
                                            -------------------------------------------

 TOTAL ELAPSED TIME SINCE BEGINNING OF SIMULATION =   45.92000    D   
 .....................................................................

                     CUMULATIVE MASS BUDGETS AT END OF TRANSPORT STEP  781, TIME STEP    1, STRESS PERIOD    3
                     -----------------------------------------------------------------------------------------

                                                             IN                           OUT
                                                      ----------------             ----------------
                               CONSTANT CONCENTRATION:    0.000000                    0.000000    
                                        CONSTANT HEAD:    0.000000                  -0.2234998E-01
                                                WELLS:   0.2833954E-01                0.000000    
                               MASS STOR (FLOW MODEL):    0.000000                    0.000000    
                                MASS STORAGE (SOLUTE):   0.1909635E-04              -0.6008810E-02
                            ---------------------------------------------------------------------------
                                              [TOTAL]:   0.2835864E-01 KG           -0.2835879E-01 KG  

                                                          NET (IN - OUT):  -0.1508743E-06
                                                   DISCREPANCY (PERCENT):  -0.5320208E-03
     1 CALLS TO GCG PACKAGE FOR TRANSPORT TIME STEP   782 IN FLOW TIME STEP     1 STRESS PERIOD     3
      4 TOTAL ITERATIONS
     1 CALLS TO GCG PACKAGE FOR TRANSPORT TIME STEP   783 IN FLOW TIME STEP     1 STRESS PERIOD     3
      4 TOTAL ITERATIONS
     1 CALLS TO GCG PACKAGE FOR TRANSPORT TIME STEP   784 IN FLOW TIME STEP     1 STRESS PERIOD     3
      4 TOTAL ITERATIONS
     1 CALLS TO GCG PACKAGE FOR TRANSPORT TIME STEP   785 IN FLOW TIME STEP     1 STRESS PERIOD     3
      4 TOTAL ITERATIONS
     1 CALLS TO GCG PACKAGE FOR TRANSPORT TIME STEP   786 IN FLOW TIME STEP     1 STRESS PERIOD     3
      4 TOTAL ITERATIONS
     1 CALLS TO GCG PACKAGE FOR TRANSPORT TIME STEP   787 IN FLOW TIME STEP     1 STRESS PERIOD     3
      4 TOTAL ITERATIONS
     1 CALLS TO GCG PACKAGE FOR TRANSPORT TIME STEP   788 IN FLOW TIME STEP     1 STRESS PERIOD     3
      4 TOTAL ITERATIONS
     1 CALLS TO GCG PACKAGE FOR TRANSPORT TIME STEP   789 IN FLOW TIME STEP     1 STRESS PERIOD     3
      4 TOTAL ITERATIONS
     1 CALLS TO GCG PACKAGE FOR TRANSPORT TIME STEP   790 IN FLOW TIME STEP     1 STRESS PERIOD     3
      4 TOTAL ITERATIONS
     1 CALLS TO GCG PACKAGE FOR TRANSPORT TIME STEP   791 IN FLOW TIME STEP     1 STRESS PERIOD     3
      4 TOTAL ITERATIONS
     1 CALLS TO GCG PACKAGE FOR TRANSPORT TIME STEP   792 IN FLOW TIME STEP     1 STRESS PERIOD     3
      4 TOTAL ITERATIONS
     1 CALLS TO GCG PACKAGE FOR TRANSPORT TIME STEP   793 IN FLOW TIME STEP     1 STRESS PERIOD     3
      4 TOTAL ITERATIONS
     1 CALLS TO GCG PACKAGE FOR TRANSPORT TIME STEP   794 IN FLOW TIME STEP     1 STRESS PERIOD     3
      4 TOTAL ITERATIONS
     1 CALLS TO GCG PACKAGE FOR TRANSPORT TIME STEP   795 IN FLOW TIME STEP     1 STRESS PERIOD     3
      4 TOTAL ITERATIONS
     1 CALLS TO GCG PACKAGE FOR TRANSPORT TIME STEP   796 IN FLOW TIME STEP     1 STRESS PERIOD     3
      4 TOTAL ITERATIONS
     1 CALLS TO GCG PACKAGE FOR TRANSPORT TIME STEP   797 IN FLOW TIME STEP     1 STRESS PERIOD     3
      4 TOTAL ITERATIONS
     1 CALLS TO GCG PACKAGE FOR TRANSPORT TIME STEP   798 IN FLOW TIME STEP     1 STRESS PERIOD     3
      4 TOTAL ITERATIONS
     1 CALLS TO GCG PACKAGE FOR TRANSPORT TIME STEP   799 IN FLOW TIME STEP     1 STRESS PERIOD     3
      4 TOTAL ITERATIONS
     1 CALLS TO GCG PACKAGE FOR TRANSPORT TIME STEP   800 IN FLOW TIME STEP     1 STRESS PERIOD     3
      4 TOTAL ITERATIONS
     1 CALLS TO GCG PACKAGE FOR TRANSPORT TIME STEP   801 IN FLOW TIME STEP     1 STRESS PERIOD     3
      4 TOTAL ITERATIONS
     1 CALLS TO GCG PACKAGE FOR TRANSPORT TIME STEP   802 IN FLOW TIME STEP     1 STRESS PERIOD     3
      4 TOTAL ITERATIONS
     1 CALLS TO GCG PACKAGE FOR TRANSPORT TIME STEP   803 IN FLOW TIME STEP     1 STRESS PERIOD     3
      4 TOTAL ITERATIONS
     1 CALLS TO GCG PACKAGE FOR TRANSPORT TIME STEP   804 IN FLOW TIME STEP     1 STRESS PERIOD     3
      4 TOTAL ITERATIONS
     1 CALLS TO GCG PACKAGE FOR TRANSPORT TIME STEP   805 IN FLOW TIME STEP     1 STRESS PERIOD     3
      4 TOTAL ITERATIONS
     1 CALLS TO GCG PACKAGE FOR TRANSPORT TIME STEP   806 IN FLOW TIME STEP     1 STRESS PERIOD     3
      4 TOTAL ITERATIONS
     1 CALLS TO GCG PACKAGE FOR TRANSPORT TIME STEP   807 IN FLOW TIME STEP     1 STRESS PERIOD     3
      4 TOTAL ITERATIONS
     1 CALLS TO GCG PACKAGE FOR TRANSPORT TIME STEP   808 IN FLOW TIME STEP     1 STRESS PERIOD     3
      4 TOTAL ITERATIONS
     1 CALLS TO GCG PACKAGE FOR TRANSPORT TIME STEP   809 IN FLOW TIME STEP     1 STRESS PERIOD     3
      4 TOTAL ITERATIONS
     1 CALLS TO GCG PACKAGE FOR TRANSPORT TIME STEP   810 IN FLOW TIME STEP     1 STRESS PERIOD     3
      4 TOTAL ITERATIONS
     1 CALLS TO GCG PACKAGE FOR TRANSPORT TIME STEP   811 IN FLOW TIME STEP     1 STRESS PERIOD     3
      4 TOTAL ITERATIONS
     1 CALLS TO GCG PACKAGE FOR TRANSPORT TIME STEP   812 IN FLOW TIME STEP     1 STRESS PERIOD     3
      4 TOTAL ITERATIONS
     1 CALLS TO GCG PACKAGE FOR TRANSPORT TIME STEP   813 IN FLOW TIME STEP     1 STRESS PERIOD     3
      4 TOTAL ITERATIONS
     1 CALLS TO GCG PACKAGE FOR TRANSPORT TIME STEP   814 IN FLOW TIME STEP     1 STRESS PERIOD     3
      4 TOTAL ITERATIONS
     1 CALLS TO GCG PACKAGE FOR TRANSPORT TIME STEP   815 IN FLOW TIME STEP     1 STRESS PERIOD     3
      4 TOTAL ITERATIONS
     1 CALLS TO GCG PACKAGE FOR TRANSPORT TIME STEP   816 IN FLOW TIME STEP     1 STRESS PERIOD     3
      4 TOTAL ITERATIONS
     1 CALLS TO GCG PACKAGE FOR TRANSPORT TIME STEP   817 IN FLOW TIME STEP     1 STRESS PERIOD     3
      4 TOTAL ITERATIONS
     1 CALLS TO GCG PACKAGE FOR TRANSPORT TIME STEP   818 IN FLOW TIME STEP     1 STRESS PERIOD     3
      4 TOTAL ITERATIONS
     1 CALLS TO GCG PACKAGE FOR TRANSPORT TIME STEP   819 IN FLOW TIME STEP     1 STRESS PERIOD     3
      4 TOTAL ITERATIONS
     1 CALLS TO GCG PACKAGE FOR TRANSPORT TIME STEP   820 IN FLOW TIME STEP     1 STRESS PERIOD     3
      4 TOTAL ITERATIONS
     1 CALLS TO GCG PACKAGE FOR TRANSPORT TIME STEP   821 IN FLOW TIME STEP     1 STRESS PERIOD     3
      4 TOTAL ITERATIONS
     1 CALLS TO GCG PACKAGE FOR TRANSPORT TIME STEP   822 IN FLOW TIME STEP     1 STRESS PERIOD     3
      4 TOTAL ITERATIONS
     1 CALLS TO GCG PACKAGE FOR TRANSPORT TIME STEP   823 IN FLOW TIME STEP     1 STRESS PERIOD     3
      4 TOTAL ITERATIONS
     1 CALLS TO GCG PACKAGE FOR TRANSPORT TIME STEP   824 IN FLOW TIME STEP     1 STRESS PERIOD     3
      4 TOTAL ITERATIONS
     1 CALLS TO GCG PACKAGE FOR TRANSPORT TIME STEP   825 IN FLOW TIME STEP     1 STRESS PERIOD     3
      4 TOTAL ITERATIONS
     1 CALLS TO GCG PACKAGE FOR TRANSPORT TIME STEP   826 IN FLOW TIME STEP     1 STRESS PERIOD     3
      4 TOTAL ITERATIONS
     1 CALLS TO GCG PACKAGE FOR TRANSPORT TIME STEP   827 IN FLOW TIME STEP     1 STRESS PERIOD     3
      3 TOTAL ITERATIONS



 >>>>>>>>>>>>>>>>>>>>>>>>>>>>>>>>>>>>>>>>>>>>>>>>>>>>>>>FOR COMPONENT NO. 01<<<<<<<<<<<<<<<<<<<<<<<<<<<<<<<<<<<<<<<<<<<<<<<<<<<<<<<


                                            -------------------------------------------
                                                      TRANSPORT STEP NO.  827
                                            -------------------------------------------

 TOTAL ELAPSED TIME SINCE BEGINNING OF SIMULATION =   46.74000    D   
 .....................................................................

                     CUMULATIVE MASS BUDGETS AT END OF TRANSPORT STEP  827, TIME STEP    1, STRESS PERIOD    3
                     -----------------------------------------------------------------------------------------

                                                             IN                           OUT
                                                      ----------------             ----------------
                               CONSTANT CONCENTRATION:    0.000000                    0.000000    
                                        CONSTANT HEAD:    0.000000                  -0.2285152E-01
                                                WELLS:   0.2884560E-01                0.000000    
                               MASS STOR (FLOW MODEL):    0.000000                    0.000000    
                                MASS STORAGE (SOLUTE):   0.1912023E-04              -0.6013328E-02
                            ---------------------------------------------------------------------------
                                              [TOTAL]:   0.2886472E-01 KG           -0.2886485E-01 KG  

                                                          NET (IN - OUT):  -0.1210719E-06
                                                   DISCREPANCY (PERCENT):  -0.4194451E-03
     1 CALLS TO GCG PACKAGE FOR TRANSPORT TIME STEP   828 IN FLOW TIME STEP     1 STRESS PERIOD     3
      4 TOTAL ITERATIONS
     1 CALLS TO GCG PACKAGE FOR TRANSPORT TIME STEP   829 IN FLOW TIME STEP     1 STRESS PERIOD     3
      4 TOTAL ITERATIONS
     1 CALLS TO GCG PACKAGE FOR TRANSPORT TIME STEP   830 IN FLOW TIME STEP     1 STRESS PERIOD     3
      4 TOTAL ITERATIONS
     1 CALLS TO GCG PACKAGE FOR TRANSPORT TIME STEP   831 IN FLOW TIME STEP     1 STRESS PERIOD     3
      4 TOTAL ITERATIONS
     1 CALLS TO GCG PACKAGE FOR TRANSPORT TIME STEP   832 IN FLOW TIME STEP     1 STRESS PERIOD     3
      4 TOTAL ITERATIONS
     1 CALLS TO GCG PACKAGE FOR TRANSPORT TIME STEP   833 IN FLOW TIME STEP     1 STRESS PERIOD     3
      4 TOTAL ITERATIONS
     1 CALLS TO GCG PACKAGE FOR TRANSPORT TIME STEP   834 IN FLOW TIME STEP     1 STRESS PERIOD     3
      4 TOTAL ITERATIONS
     1 CALLS TO GCG PACKAGE FOR TRANSPORT TIME STEP   835 IN FLOW TIME STEP     1 STRESS PERIOD     3
      4 TOTAL ITERATIONS
     1 CALLS TO GCG PACKAGE FOR TRANSPORT TIME STEP   836 IN FLOW TIME STEP     1 STRESS PERIOD     3
      4 TOTAL ITERATIONS
     1 CALLS TO GCG PACKAGE FOR TRANSPORT TIME STEP   837 IN FLOW TIME STEP     1 STRESS PERIOD     3
      4 TOTAL ITERATIONS
     1 CALLS TO GCG PACKAGE FOR TRANSPORT TIME STEP   838 IN FLOW TIME STEP     1 STRESS PERIOD     3
      4 TOTAL ITERATIONS
     1 CALLS TO GCG PACKAGE FOR TRANSPORT TIME STEP   839 IN FLOW TIME STEP     1 STRESS PERIOD     3
      4 TOTAL ITERATIONS
     1 CALLS TO GCG PACKAGE FOR TRANSPORT TIME STEP   840 IN FLOW TIME STEP     1 STRESS PERIOD     3
      4 TOTAL ITERATIONS
     1 CALLS TO GCG PACKAGE FOR TRANSPORT TIME STEP   841 IN FLOW TIME STEP     1 STRESS PERIOD     3
      4 TOTAL ITERATIONS
     1 CALLS TO GCG PACKAGE FOR TRANSPORT TIME STEP   842 IN FLOW TIME STEP     1 STRESS PERIOD     3
      4 TOTAL ITERATIONS
     1 CALLS TO GCG PACKAGE FOR TRANSPORT TIME STEP   843 IN FLOW TIME STEP     1 STRESS PERIOD     3
      4 TOTAL ITERATIONS
     1 CALLS TO GCG PACKAGE FOR TRANSPORT TIME STEP   844 IN FLOW TIME STEP     1 STRESS PERIOD     3
      4 TOTAL ITERATIONS
     1 CALLS TO GCG PACKAGE FOR TRANSPORT TIME STEP   845 IN FLOW TIME STEP     1 STRESS PERIOD     3
      4 TOTAL ITERATIONS
     1 CALLS TO GCG PACKAGE FOR TRANSPORT TIME STEP   846 IN FLOW TIME STEP     1 STRESS PERIOD     3
      4 TOTAL ITERATIONS
     1 CALLS TO GCG PACKAGE FOR TRANSPORT TIME STEP   847 IN FLOW TIME STEP     1 STRESS PERIOD     3
      4 TOTAL ITERATIONS
     1 CALLS TO GCG PACKAGE FOR TRANSPORT TIME STEP   848 IN FLOW TIME STEP     1 STRESS PERIOD     3
      4 TOTAL ITERATIONS
     1 CALLS TO GCG PACKAGE FOR TRANSPORT TIME STEP   849 IN FLOW TIME STEP     1 STRESS PERIOD     3
      4 TOTAL ITERATIONS
     1 CALLS TO GCG PACKAGE FOR TRANSPORT TIME STEP   850 IN FLOW TIME STEP     1 STRESS PERIOD     3
      4 TOTAL ITERATIONS
     1 CALLS TO GCG PACKAGE FOR TRANSPORT TIME STEP   851 IN FLOW TIME STEP     1 STRESS PERIOD     3
      4 TOTAL ITERATIONS
     1 CALLS TO GCG PACKAGE FOR TRANSPORT TIME STEP   852 IN FLOW TIME STEP     1 STRESS PERIOD     3
      4 TOTAL ITERATIONS
     1 CALLS TO GCG PACKAGE FOR TRANSPORT TIME STEP   853 IN FLOW TIME STEP     1 STRESS PERIOD     3
      4 TOTAL ITERATIONS
     1 CALLS TO GCG PACKAGE FOR TRANSPORT TIME STEP   854 IN FLOW TIME STEP     1 STRESS PERIOD     3
      4 TOTAL ITERATIONS
     1 CALLS TO GCG PACKAGE FOR TRANSPORT TIME STEP   855 IN FLOW TIME STEP     1 STRESS PERIOD     3
      4 TOTAL ITERATIONS
     1 CALLS TO GCG PACKAGE FOR TRANSPORT TIME STEP   856 IN FLOW TIME STEP     1 STRESS PERIOD     3
      4 TOTAL ITERATIONS
     1 CALLS TO GCG PACKAGE FOR TRANSPORT TIME STEP   857 IN FLOW TIME STEP     1 STRESS PERIOD     3
      4 TOTAL ITERATIONS
     1 CALLS TO GCG PACKAGE FOR TRANSPORT TIME STEP   858 IN FLOW TIME STEP     1 STRESS PERIOD     3
      4 TOTAL ITERATIONS
     1 CALLS TO GCG PACKAGE FOR TRANSPORT TIME STEP   859 IN FLOW TIME STEP     1 STRESS PERIOD     3
      4 TOTAL ITERATIONS
     1 CALLS TO GCG PACKAGE FOR TRANSPORT TIME STEP   860 IN FLOW TIME STEP     1 STRESS PERIOD     3
      4 TOTAL ITERATIONS
     1 CALLS TO GCG PACKAGE FOR TRANSPORT TIME STEP   861 IN FLOW TIME STEP     1 STRESS PERIOD     3
      4 TOTAL ITERATIONS
     1 CALLS TO GCG PACKAGE FOR TRANSPORT TIME STEP   862 IN FLOW TIME STEP     1 STRESS PERIOD     3
      4 TOTAL ITERATIONS
     1 CALLS TO GCG PACKAGE FOR TRANSPORT TIME STEP   863 IN FLOW TIME STEP     1 STRESS PERIOD     3
      4 TOTAL ITERATIONS
     1 CALLS TO GCG PACKAGE FOR TRANSPORT TIME STEP   864 IN FLOW TIME STEP     1 STRESS PERIOD     3
      4 TOTAL ITERATIONS
     1 CALLS TO GCG PACKAGE FOR TRANSPORT TIME STEP   865 IN FLOW TIME STEP     1 STRESS PERIOD     3
      4 TOTAL ITERATIONS
     1 CALLS TO GCG PACKAGE FOR TRANSPORT TIME STEP   866 IN FLOW TIME STEP     1 STRESS PERIOD     3
      4 TOTAL ITERATIONS
     1 CALLS TO GCG PACKAGE FOR TRANSPORT TIME STEP   867 IN FLOW TIME STEP     1 STRESS PERIOD     3
      4 TOTAL ITERATIONS
     1 CALLS TO GCG PACKAGE FOR TRANSPORT TIME STEP   868 IN FLOW TIME STEP     1 STRESS PERIOD     3
      4 TOTAL ITERATIONS
     1 CALLS TO GCG PACKAGE FOR TRANSPORT TIME STEP   869 IN FLOW TIME STEP     1 STRESS PERIOD     3
      4 TOTAL ITERATIONS
     1 CALLS TO GCG PACKAGE FOR TRANSPORT TIME STEP   870 IN FLOW TIME STEP     1 STRESS PERIOD     3
      4 TOTAL ITERATIONS
     1 CALLS TO GCG PACKAGE FOR TRANSPORT TIME STEP   871 IN FLOW TIME STEP     1 STRESS PERIOD     3
      4 TOTAL ITERATIONS
     1 CALLS TO GCG PACKAGE FOR TRANSPORT TIME STEP   872 IN FLOW TIME STEP     1 STRESS PERIOD     3
      4 TOTAL ITERATIONS
     1 CALLS TO GCG PACKAGE FOR TRANSPORT TIME STEP   873 IN FLOW TIME STEP     1 STRESS PERIOD     3
      3 TOTAL ITERATIONS



 >>>>>>>>>>>>>>>>>>>>>>>>>>>>>>>>>>>>>>>>>>>>>>>>>>>>>>>FOR COMPONENT NO. 01<<<<<<<<<<<<<<<<<<<<<<<<<<<<<<<<<<<<<<<<<<<<<<<<<<<<<<<


                                            -------------------------------------------
                                                      TRANSPORT STEP NO.  873
                                            -------------------------------------------

 TOTAL ELAPSED TIME SINCE BEGINNING OF SIMULATION =   47.56000    D   
 .....................................................................

                     CUMULATIVE MASS BUDGETS AT END OF TRANSPORT STEP  873, TIME STEP    1, STRESS PERIOD    3
                     -----------------------------------------------------------------------------------------

                                                             IN                           OUT
                                                      ----------------             ----------------
                               CONSTANT CONCENTRATION:    0.000000                    0.000000    
                                        CONSTANT HEAD:    0.000000                  -0.2335333E-01
                                                WELLS:   0.2935167E-01                0.000000    
                               MASS STOR (FLOW MODEL):    0.000000                    0.000000    
                                MASS STORAGE (SOLUTE):   0.1914411E-04              -0.6017576E-02
                            ---------------------------------------------------------------------------
                                              [TOTAL]:   0.2937081E-01 KG           -0.2937090E-01 KG  

                                                          NET (IN - OUT):  -0.8940697E-07
                                                   DISCREPANCY (PERCENT):  -0.3044071E-03
     1 CALLS TO GCG PACKAGE FOR TRANSPORT TIME STEP   874 IN FLOW TIME STEP     1 STRESS PERIOD     3
      4 TOTAL ITERATIONS
     1 CALLS TO GCG PACKAGE FOR TRANSPORT TIME STEP   875 IN FLOW TIME STEP     1 STRESS PERIOD     3
      4 TOTAL ITERATIONS
     1 CALLS TO GCG PACKAGE FOR TRANSPORT TIME STEP   876 IN FLOW TIME STEP     1 STRESS PERIOD     3
      4 TOTAL ITERATIONS
     1 CALLS TO GCG PACKAGE FOR TRANSPORT TIME STEP   877 IN FLOW TIME STEP     1 STRESS PERIOD     3
      4 TOTAL ITERATIONS
     1 CALLS TO GCG PACKAGE FOR TRANSPORT TIME STEP   878 IN FLOW TIME STEP     1 STRESS PERIOD     3
      4 TOTAL ITERATIONS
     1 CALLS TO GCG PACKAGE FOR TRANSPORT TIME STEP   879 IN FLOW TIME STEP     1 STRESS PERIOD     3
      4 TOTAL ITERATIONS
     1 CALLS TO GCG PACKAGE FOR TRANSPORT TIME STEP   880 IN FLOW TIME STEP     1 STRESS PERIOD     3
      4 TOTAL ITERATIONS
     1 CALLS TO GCG PACKAGE FOR TRANSPORT TIME STEP   881 IN FLOW TIME STEP     1 STRESS PERIOD     3
      4 TOTAL ITERATIONS
     1 CALLS TO GCG PACKAGE FOR TRANSPORT TIME STEP   882 IN FLOW TIME STEP     1 STRESS PERIOD     3
      4 TOTAL ITERATIONS
     1 CALLS TO GCG PACKAGE FOR TRANSPORT TIME STEP   883 IN FLOW TIME STEP     1 STRESS PERIOD     3
      4 TOTAL ITERATIONS
     1 CALLS TO GCG PACKAGE FOR TRANSPORT TIME STEP   884 IN FLOW TIME STEP     1 STRESS PERIOD     3
      4 TOTAL ITERATIONS
     1 CALLS TO GCG PACKAGE FOR TRANSPORT TIME STEP   885 IN FLOW TIME STEP     1 STRESS PERIOD     3
      4 TOTAL ITERATIONS
     1 CALLS TO GCG PACKAGE FOR TRANSPORT TIME STEP   886 IN FLOW TIME STEP     1 STRESS PERIOD     3
      4 TOTAL ITERATIONS
     1 CALLS TO GCG PACKAGE FOR TRANSPORT TIME STEP   887 IN FLOW TIME STEP     1 STRESS PERIOD     3
      4 TOTAL ITERATIONS
     1 CALLS TO GCG PACKAGE FOR TRANSPORT TIME STEP   888 IN FLOW TIME STEP     1 STRESS PERIOD     3
      4 TOTAL ITERATIONS
     1 CALLS TO GCG PACKAGE FOR TRANSPORT TIME STEP   889 IN FLOW TIME STEP     1 STRESS PERIOD     3
      4 TOTAL ITERATIONS
     1 CALLS TO GCG PACKAGE FOR TRANSPORT TIME STEP   890 IN FLOW TIME STEP     1 STRESS PERIOD     3
      4 TOTAL ITERATIONS
     1 CALLS TO GCG PACKAGE FOR TRANSPORT TIME STEP   891 IN FLOW TIME STEP     1 STRESS PERIOD     3
      4 TOTAL ITERATIONS
     1 CALLS TO GCG PACKAGE FOR TRANSPORT TIME STEP   892 IN FLOW TIME STEP     1 STRESS PERIOD     3
      4 TOTAL ITERATIONS
     1 CALLS TO GCG PACKAGE FOR TRANSPORT TIME STEP   893 IN FLOW TIME STEP     1 STRESS PERIOD     3
      4 TOTAL ITERATIONS
     1 CALLS TO GCG PACKAGE FOR TRANSPORT TIME STEP   894 IN FLOW TIME STEP     1 STRESS PERIOD     3
      4 TOTAL ITERATIONS
     1 CALLS TO GCG PACKAGE FOR TRANSPORT TIME STEP   895 IN FLOW TIME STEP     1 STRESS PERIOD     3
      4 TOTAL ITERATIONS
     1 CALLS TO GCG PACKAGE FOR TRANSPORT TIME STEP   896 IN FLOW TIME STEP     1 STRESS PERIOD     3
      4 TOTAL ITERATIONS
     1 CALLS TO GCG PACKAGE FOR TRANSPORT TIME STEP   897 IN FLOW TIME STEP     1 STRESS PERIOD     3
      4 TOTAL ITERATIONS
     1 CALLS TO GCG PACKAGE FOR TRANSPORT TIME STEP   898 IN FLOW TIME STEP     1 STRESS PERIOD     3
      4 TOTAL ITERATIONS
     1 CALLS TO GCG PACKAGE FOR TRANSPORT TIME STEP   899 IN FLOW TIME STEP     1 STRESS PERIOD     3
      4 TOTAL ITERATIONS
     1 CALLS TO GCG PACKAGE FOR TRANSPORT TIME STEP   900 IN FLOW TIME STEP     1 STRESS PERIOD     3
      4 TOTAL ITERATIONS
     1 CALLS TO GCG PACKAGE FOR TRANSPORT TIME STEP   901 IN FLOW TIME STEP     1 STRESS PERIOD     3
      4 TOTAL ITERATIONS
     1 CALLS TO GCG PACKAGE FOR TRANSPORT TIME STEP   902 IN FLOW TIME STEP     1 STRESS PERIOD     3
      4 TOTAL ITERATIONS
     1 CALLS TO GCG PACKAGE FOR TRANSPORT TIME STEP   903 IN FLOW TIME STEP     1 STRESS PERIOD     3
      4 TOTAL ITERATIONS
     1 CALLS TO GCG PACKAGE FOR TRANSPORT TIME STEP   904 IN FLOW TIME STEP     1 STRESS PERIOD     3
      4 TOTAL ITERATIONS
     1 CALLS TO GCG PACKAGE FOR TRANSPORT TIME STEP   905 IN FLOW TIME STEP     1 STRESS PERIOD     3
      4 TOTAL ITERATIONS
     1 CALLS TO GCG PACKAGE FOR TRANSPORT TIME STEP   906 IN FLOW TIME STEP     1 STRESS PERIOD     3
      4 TOTAL ITERATIONS
     1 CALLS TO GCG PACKAGE FOR TRANSPORT TIME STEP   907 IN FLOW TIME STEP     1 STRESS PERIOD     3
      4 TOTAL ITERATIONS
     1 CALLS TO GCG PACKAGE FOR TRANSPORT TIME STEP   908 IN FLOW TIME STEP     1 STRESS PERIOD     3
      4 TOTAL ITERATIONS
     1 CALLS TO GCG PACKAGE FOR TRANSPORT TIME STEP   909 IN FLOW TIME STEP     1 STRESS PERIOD     3
      4 TOTAL ITERATIONS
     1 CALLS TO GCG PACKAGE FOR TRANSPORT TIME STEP   910 IN FLOW TIME STEP     1 STRESS PERIOD     3
      4 TOTAL ITERATIONS
     1 CALLS TO GCG PACKAGE FOR TRANSPORT TIME STEP   911 IN FLOW TIME STEP     1 STRESS PERIOD     3
      4 TOTAL ITERATIONS
     1 CALLS TO GCG PACKAGE FOR TRANSPORT TIME STEP   912 IN FLOW TIME STEP     1 STRESS PERIOD     3
      4 TOTAL ITERATIONS
     1 CALLS TO GCG PACKAGE FOR TRANSPORT TIME STEP   913 IN FLOW TIME STEP     1 STRESS PERIOD     3
      4 TOTAL ITERATIONS
     1 CALLS TO GCG PACKAGE FOR TRANSPORT TIME STEP   914 IN FLOW TIME STEP     1 STRESS PERIOD     3
      4 TOTAL ITERATIONS
     1 CALLS TO GCG PACKAGE FOR TRANSPORT TIME STEP   915 IN FLOW TIME STEP     1 STRESS PERIOD     3
      4 TOTAL ITERATIONS
     1 CALLS TO GCG PACKAGE FOR TRANSPORT TIME STEP   916 IN FLOW TIME STEP     1 STRESS PERIOD     3
      4 TOTAL ITERATIONS
     1 CALLS TO GCG PACKAGE FOR TRANSPORT TIME STEP   917 IN FLOW TIME STEP     1 STRESS PERIOD     3
      4 TOTAL ITERATIONS
     1 CALLS TO GCG PACKAGE FOR TRANSPORT TIME STEP   918 IN FLOW TIME STEP     1 STRESS PERIOD     3
      4 TOTAL ITERATIONS
     1 CALLS TO GCG PACKAGE FOR TRANSPORT TIME STEP   919 IN FLOW TIME STEP     1 STRESS PERIOD     3
      3 TOTAL ITERATIONS



 >>>>>>>>>>>>>>>>>>>>>>>>>>>>>>>>>>>>>>>>>>>>>>>>>>>>>>>FOR COMPONENT NO. 01<<<<<<<<<<<<<<<<<<<<<<<<<<<<<<<<<<<<<<<<<<<<<<<<<<<<<<<


                                            -------------------------------------------
                                                      TRANSPORT STEP NO.  919
                                            -------------------------------------------

 TOTAL ELAPSED TIME SINCE BEGINNING OF SIMULATION =   48.38000    D   
 .....................................................................

                     CUMULATIVE MASS BUDGETS AT END OF TRANSPORT STEP  919, TIME STEP    1, STRESS PERIOD    3
                     -----------------------------------------------------------------------------------------

                                                             IN                           OUT
                                                      ----------------             ----------------
                               CONSTANT CONCENTRATION:    0.000000                    0.000000    
                                        CONSTANT HEAD:    0.000000                  -0.2385539E-01
                                                WELLS:   0.2985773E-01                0.000000    
                               MASS STOR (FLOW MODEL):    0.000000                    0.000000    
                                MASS STORAGE (SOLUTE):   0.1916814E-04              -0.6021568E-02
                            ---------------------------------------------------------------------------
                                              [TOTAL]:   0.2987690E-01 KG           -0.2987696E-01 KG  

                                                          NET (IN - OUT):  -0.5960464E-07
                                                   DISCREPANCY (PERCENT):  -0.1995006E-03
     1 CALLS TO GCG PACKAGE FOR TRANSPORT TIME STEP   920 IN FLOW TIME STEP     1 STRESS PERIOD     3
      4 TOTAL ITERATIONS
     1 CALLS TO GCG PACKAGE FOR TRANSPORT TIME STEP   921 IN FLOW TIME STEP     1 STRESS PERIOD     3
      4 TOTAL ITERATIONS
     1 CALLS TO GCG PACKAGE FOR TRANSPORT TIME STEP   922 IN FLOW TIME STEP     1 STRESS PERIOD     3
      4 TOTAL ITERATIONS
     1 CALLS TO GCG PACKAGE FOR TRANSPORT TIME STEP   923 IN FLOW TIME STEP     1 STRESS PERIOD     3
      4 TOTAL ITERATIONS
     1 CALLS TO GCG PACKAGE FOR TRANSPORT TIME STEP   924 IN FLOW TIME STEP     1 STRESS PERIOD     3
      4 TOTAL ITERATIONS
     1 CALLS TO GCG PACKAGE FOR TRANSPORT TIME STEP   925 IN FLOW TIME STEP     1 STRESS PERIOD     3
      4 TOTAL ITERATIONS
     1 CALLS TO GCG PACKAGE FOR TRANSPORT TIME STEP   926 IN FLOW TIME STEP     1 STRESS PERIOD     3
      4 TOTAL ITERATIONS
     1 CALLS TO GCG PACKAGE FOR TRANSPORT TIME STEP   927 IN FLOW TIME STEP     1 STRESS PERIOD     3
      4 TOTAL ITERATIONS
     1 CALLS TO GCG PACKAGE FOR TRANSPORT TIME STEP   928 IN FLOW TIME STEP     1 STRESS PERIOD     3
      4 TOTAL ITERATIONS
     1 CALLS TO GCG PACKAGE FOR TRANSPORT TIME STEP   929 IN FLOW TIME STEP     1 STRESS PERIOD     3
      4 TOTAL ITERATIONS
     1 CALLS TO GCG PACKAGE FOR TRANSPORT TIME STEP   930 IN FLOW TIME STEP     1 STRESS PERIOD     3
      4 TOTAL ITERATIONS
     1 CALLS TO GCG PACKAGE FOR TRANSPORT TIME STEP   931 IN FLOW TIME STEP     1 STRESS PERIOD     3
      4 TOTAL ITERATIONS
     1 CALLS TO GCG PACKAGE FOR TRANSPORT TIME STEP   932 IN FLOW TIME STEP     1 STRESS PERIOD     3
      4 TOTAL ITERATIONS
     1 CALLS TO GCG PACKAGE FOR TRANSPORT TIME STEP   933 IN FLOW TIME STEP     1 STRESS PERIOD     3
      4 TOTAL ITERATIONS
     1 CALLS TO GCG PACKAGE FOR TRANSPORT TIME STEP   934 IN FLOW TIME STEP     1 STRESS PERIOD     3
      4 TOTAL ITERATIONS
     1 CALLS TO GCG PACKAGE FOR TRANSPORT TIME STEP   935 IN FLOW TIME STEP     1 STRESS PERIOD     3
      4 TOTAL ITERATIONS
     1 CALLS TO GCG PACKAGE FOR TRANSPORT TIME STEP   936 IN FLOW TIME STEP     1 STRESS PERIOD     3
      4 TOTAL ITERATIONS
     1 CALLS TO GCG PACKAGE FOR TRANSPORT TIME STEP   937 IN FLOW TIME STEP     1 STRESS PERIOD     3
      4 TOTAL ITERATIONS
     1 CALLS TO GCG PACKAGE FOR TRANSPORT TIME STEP   938 IN FLOW TIME STEP     1 STRESS PERIOD     3
      4 TOTAL ITERATIONS
     1 CALLS TO GCG PACKAGE FOR TRANSPORT TIME STEP   939 IN FLOW TIME STEP     1 STRESS PERIOD     3
      4 TOTAL ITERATIONS
     1 CALLS TO GCG PACKAGE FOR TRANSPORT TIME STEP   940 IN FLOW TIME STEP     1 STRESS PERIOD     3
      4 TOTAL ITERATIONS
     1 CALLS TO GCG PACKAGE FOR TRANSPORT TIME STEP   941 IN FLOW TIME STEP     1 STRESS PERIOD     3
      4 TOTAL ITERATIONS
     1 CALLS TO GCG PACKAGE FOR TRANSPORT TIME STEP   942 IN FLOW TIME STEP     1 STRESS PERIOD     3
      4 TOTAL ITERATIONS
     1 CALLS TO GCG PACKAGE FOR TRANSPORT TIME STEP   943 IN FLOW TIME STEP     1 STRESS PERIOD     3
      4 TOTAL ITERATIONS
     1 CALLS TO GCG PACKAGE FOR TRANSPORT TIME STEP   944 IN FLOW TIME STEP     1 STRESS PERIOD     3
      4 TOTAL ITERATIONS
     1 CALLS TO GCG PACKAGE FOR TRANSPORT TIME STEP   945 IN FLOW TIME STEP     1 STRESS PERIOD     3
      4 TOTAL ITERATIONS
     1 CALLS TO GCG PACKAGE FOR TRANSPORT TIME STEP   946 IN FLOW TIME STEP     1 STRESS PERIOD     3
      4 TOTAL ITERATIONS
     1 CALLS TO GCG PACKAGE FOR TRANSPORT TIME STEP   947 IN FLOW TIME STEP     1 STRESS PERIOD     3
      4 TOTAL ITERATIONS
     1 CALLS TO GCG PACKAGE FOR TRANSPORT TIME STEP   948 IN FLOW TIME STEP     1 STRESS PERIOD     3
      4 TOTAL ITERATIONS
     1 CALLS TO GCG PACKAGE FOR TRANSPORT TIME STEP   949 IN FLOW TIME STEP     1 STRESS PERIOD     3
      4 TOTAL ITERATIONS
     1 CALLS TO GCG PACKAGE FOR TRANSPORT TIME STEP   950 IN FLOW TIME STEP     1 STRESS PERIOD     3
      4 TOTAL ITERATIONS
     1 CALLS TO GCG PACKAGE FOR TRANSPORT TIME STEP   951 IN FLOW TIME STEP     1 STRESS PERIOD     3
      4 TOTAL ITERATIONS
     1 CALLS TO GCG PACKAGE FOR TRANSPORT TIME STEP   952 IN FLOW TIME STEP     1 STRESS PERIOD     3
      4 TOTAL ITERATIONS
     1 CALLS TO GCG PACKAGE FOR TRANSPORT TIME STEP   953 IN FLOW TIME STEP     1 STRESS PERIOD     3
      4 TOTAL ITERATIONS
     1 CALLS TO GCG PACKAGE FOR TRANSPORT TIME STEP   954 IN FLOW TIME STEP     1 STRESS PERIOD     3
      4 TOTAL ITERATIONS
     1 CALLS TO GCG PACKAGE FOR TRANSPORT TIME STEP   955 IN FLOW TIME STEP     1 STRESS PERIOD     3
      4 TOTAL ITERATIONS
     1 CALLS TO GCG PACKAGE FOR TRANSPORT TIME STEP   956 IN FLOW TIME STEP     1 STRESS PERIOD     3
      4 TOTAL ITERATIONS
     1 CALLS TO GCG PACKAGE FOR TRANSPORT TIME STEP   957 IN FLOW TIME STEP     1 STRESS PERIOD     3
      4 TOTAL ITERATIONS
     1 CALLS TO GCG PACKAGE FOR TRANSPORT TIME STEP   958 IN FLOW TIME STEP     1 STRESS PERIOD     3
      4 TOTAL ITERATIONS
     1 CALLS TO GCG PACKAGE FOR TRANSPORT TIME STEP   959 IN FLOW TIME STEP     1 STRESS PERIOD     3
      4 TOTAL ITERATIONS
     1 CALLS TO GCG PACKAGE FOR TRANSPORT TIME STEP   960 IN FLOW TIME STEP     1 STRESS PERIOD     3
      4 TOTAL ITERATIONS
     1 CALLS TO GCG PACKAGE FOR TRANSPORT TIME STEP   961 IN FLOW TIME STEP     1 STRESS PERIOD     3
      4 TOTAL ITERATIONS
     1 CALLS TO GCG PACKAGE FOR TRANSPORT TIME STEP   962 IN FLOW TIME STEP     1 STRESS PERIOD     3
      4 TOTAL ITERATIONS
     1 CALLS TO GCG PACKAGE FOR TRANSPORT TIME STEP   963 IN FLOW TIME STEP     1 STRESS PERIOD     3
      4 TOTAL ITERATIONS
     1 CALLS TO GCG PACKAGE FOR TRANSPORT TIME STEP   964 IN FLOW TIME STEP     1 STRESS PERIOD     3
      4 TOTAL ITERATIONS
     1 CALLS TO GCG PACKAGE FOR TRANSPORT TIME STEP   965 IN FLOW TIME STEP     1 STRESS PERIOD     3
      3 TOTAL ITERATIONS



 >>>>>>>>>>>>>>>>>>>>>>>>>>>>>>>>>>>>>>>>>>>>>>>>>>>>>>>FOR COMPONENT NO. 01<<<<<<<<<<<<<<<<<<<<<<<<<<<<<<<<<<<<<<<<<<<<<<<<<<<<<<<


                                            -------------------------------------------
                                                      TRANSPORT STEP NO.  965
                                            -------------------------------------------

 TOTAL ELAPSED TIME SINCE BEGINNING OF SIMULATION =   49.20000    D   
 .....................................................................

                     CUMULATIVE MASS BUDGETS AT END OF TRANSPORT STEP  965, TIME STEP    1, STRESS PERIOD    3
                     -----------------------------------------------------------------------------------------

                                                             IN                           OUT
                                                      ----------------             ----------------
                               CONSTANT CONCENTRATION:    0.000000                    0.000000    
                                        CONSTANT HEAD:    0.000000                  -0.2435769E-01
                                                WELLS:   0.3036379E-01                0.000000    
                               MASS STOR (FLOW MODEL):    0.000000                    0.000000    
                                MASS STORAGE (SOLUTE):   0.1919233E-04              -0.6025319E-02
                            ---------------------------------------------------------------------------
                                              [TOTAL]:   0.3038298E-01 KG           -0.3038301E-01 KG  

                                                          NET (IN - OUT):  -0.2980232E-07
                                                   DISCREPANCY (PERCENT):  -0.9808881E-04
     1 CALLS TO GCG PACKAGE FOR TRANSPORT TIME STEP   966 IN FLOW TIME STEP     1 STRESS PERIOD     3
      4 TOTAL ITERATIONS
     1 CALLS TO GCG PACKAGE FOR TRANSPORT TIME STEP   967 IN FLOW TIME STEP     1 STRESS PERIOD     3
      4 TOTAL ITERATIONS
     1 CALLS TO GCG PACKAGE FOR TRANSPORT TIME STEP   968 IN FLOW TIME STEP     1 STRESS PERIOD     3
      4 TOTAL ITERATIONS
     1 CALLS TO GCG PACKAGE FOR TRANSPORT TIME STEP   969 IN FLOW TIME STEP     1 STRESS PERIOD     3
      4 TOTAL ITERATIONS
     1 CALLS TO GCG PACKAGE FOR TRANSPORT TIME STEP   970 IN FLOW TIME STEP     1 STRESS PERIOD     3
      4 TOTAL ITERATIONS
     1 CALLS TO GCG PACKAGE FOR TRANSPORT TIME STEP   971 IN FLOW TIME STEP     1 STRESS PERIOD     3
      4 TOTAL ITERATIONS
     1 CALLS TO GCG PACKAGE FOR TRANSPORT TIME STEP   972 IN FLOW TIME STEP     1 STRESS PERIOD     3
      4 TOTAL ITERATIONS
     1 CALLS TO GCG PACKAGE FOR TRANSPORT TIME STEP   973 IN FLOW TIME STEP     1 STRESS PERIOD     3
      4 TOTAL ITERATIONS
     1 CALLS TO GCG PACKAGE FOR TRANSPORT TIME STEP   974 IN FLOW TIME STEP     1 STRESS PERIOD     3
      4 TOTAL ITERATIONS
     1 CALLS TO GCG PACKAGE FOR TRANSPORT TIME STEP   975 IN FLOW TIME STEP     1 STRESS PERIOD     3
      4 TOTAL ITERATIONS
     1 CALLS TO GCG PACKAGE FOR TRANSPORT TIME STEP   976 IN FLOW TIME STEP     1 STRESS PERIOD     3
      4 TOTAL ITERATIONS
     1 CALLS TO GCG PACKAGE FOR TRANSPORT TIME STEP   977 IN FLOW TIME STEP     1 STRESS PERIOD     3
      4 TOTAL ITERATIONS
     1 CALLS TO GCG PACKAGE FOR TRANSPORT TIME STEP   978 IN FLOW TIME STEP     1 STRESS PERIOD     3
      4 TOTAL ITERATIONS
     1 CALLS TO GCG PACKAGE FOR TRANSPORT TIME STEP   979 IN FLOW TIME STEP     1 STRESS PERIOD     3
      4 TOTAL ITERATIONS
     1 CALLS TO GCG PACKAGE FOR TRANSPORT TIME STEP   980 IN FLOW TIME STEP     1 STRESS PERIOD     3
      4 TOTAL ITERATIONS
     1 CALLS TO GCG PACKAGE FOR TRANSPORT TIME STEP   981 IN FLOW TIME STEP     1 STRESS PERIOD     3
      4 TOTAL ITERATIONS
     1 CALLS TO GCG PACKAGE FOR TRANSPORT TIME STEP   982 IN FLOW TIME STEP     1 STRESS PERIOD     3
      4 TOTAL ITERATIONS
     1 CALLS TO GCG PACKAGE FOR TRANSPORT TIME STEP   983 IN FLOW TIME STEP     1 STRESS PERIOD     3
      4 TOTAL ITERATIONS
     1 CALLS TO GCG PACKAGE FOR TRANSPORT TIME STEP   984 IN FLOW TIME STEP     1 STRESS PERIOD     3
      4 TOTAL ITERATIONS
     1 CALLS TO GCG PACKAGE FOR TRANSPORT TIME STEP   985 IN FLOW TIME STEP     1 STRESS PERIOD     3
      4 TOTAL ITERATIONS
     1 CALLS TO GCG PACKAGE FOR TRANSPORT TIME STEP   986 IN FLOW TIME STEP     1 STRESS PERIOD     3
      4 TOTAL ITERATIONS
     1 CALLS TO GCG PACKAGE FOR TRANSPORT TIME STEP   987 IN FLOW TIME STEP     1 STRESS PERIOD     3
      4 TOTAL ITERATIONS
     1 CALLS TO GCG PACKAGE FOR TRANSPORT TIME STEP   988 IN FLOW TIME STEP     1 STRESS PERIOD     3
      4 TOTAL ITERATIONS
     1 CALLS TO GCG PACKAGE FOR TRANSPORT TIME STEP   989 IN FLOW TIME STEP     1 STRESS PERIOD     3
      4 TOTAL ITERATIONS
     1 CALLS TO GCG PACKAGE FOR TRANSPORT TIME STEP   990 IN FLOW TIME STEP     1 STRESS PERIOD     3
      4 TOTAL ITERATIONS
     1 CALLS TO GCG PACKAGE FOR TRANSPORT TIME STEP   991 IN FLOW TIME STEP     1 STRESS PERIOD     3
      4 TOTAL ITERATIONS
     1 CALLS TO GCG PACKAGE FOR TRANSPORT TIME STEP   992 IN FLOW TIME STEP     1 STRESS PERIOD     3
      4 TOTAL ITERATIONS
     1 CALLS TO GCG PACKAGE FOR TRANSPORT TIME STEP   993 IN FLOW TIME STEP     1 STRESS PERIOD     3
      4 TOTAL ITERATIONS
     1 CALLS TO GCG PACKAGE FOR TRANSPORT TIME STEP   994 IN FLOW TIME STEP     1 STRESS PERIOD     3
      4 TOTAL ITERATIONS
     1 CALLS TO GCG PACKAGE FOR TRANSPORT TIME STEP   995 IN FLOW TIME STEP     1 STRESS PERIOD     3
      4 TOTAL ITERATIONS
     1 CALLS TO GCG PACKAGE FOR TRANSPORT TIME STEP   996 IN FLOW TIME STEP     1 STRESS PERIOD     3
      4 TOTAL ITERATIONS
     1 CALLS TO GCG PACKAGE FOR TRANSPORT TIME STEP   997 IN FLOW TIME STEP     1 STRESS PERIOD     3
      4 TOTAL ITERATIONS
     1 CALLS TO GCG PACKAGE FOR TRANSPORT TIME STEP   998 IN FLOW TIME STEP     1 STRESS PERIOD     3
      4 TOTAL ITERATIONS
     1 CALLS TO GCG PACKAGE FOR TRANSPORT TIME STEP   999 IN FLOW TIME STEP     1 STRESS PERIOD     3
      4 TOTAL ITERATIONS
  MAXIMUM CONCENTRATION CHANGES FOR EACH ITERATION:
  MAX. CHANGE LAYER,ROW,COL MAX. CHANGE LAYER,ROW,COL MAX. CHANGE LAYER,ROW,COL MAX. CHANGE LAYER,ROW,COL MAX. CHANGE LAYER,ROW,COL
 ------------------------------------------------------------------------------------------------------------------------------------
   0.2339     (  2,  1,120)  0.2250E-02 ( 40,  1,120)  0.1425E-04 ( 40,  1,120)  0.5364E-06 ( 11,  1, 15)
     1 CALLS TO GCG PACKAGE FOR TRANSPORT TIME STEP  1000 IN FLOW TIME STEP     1 STRESS PERIOD     3
      4 TOTAL ITERATIONS
     1 CALLS TO GCG PACKAGE FOR TRANSPORT TIME STEP  1001 IN FLOW TIME STEP     1 STRESS PERIOD     3
      4 TOTAL ITERATIONS
     1 CALLS TO GCG PACKAGE FOR TRANSPORT TIME STEP  1002 IN FLOW TIME STEP     1 STRESS PERIOD     3
      4 TOTAL ITERATIONS
     1 CALLS TO GCG PACKAGE FOR TRANSPORT TIME STEP  1003 IN FLOW TIME STEP     1 STRESS PERIOD     3
      4 TOTAL ITERATIONS
     1 CALLS TO GCG PACKAGE FOR TRANSPORT TIME STEP  1004 IN FLOW TIME STEP     1 STRESS PERIOD     3
      4 TOTAL ITERATIONS
     1 CALLS TO GCG PACKAGE FOR TRANSPORT TIME STEP  1005 IN FLOW TIME STEP     1 STRESS PERIOD     3
      4 TOTAL ITERATIONS
     1 CALLS TO GCG PACKAGE FOR TRANSPORT TIME STEP  1006 IN FLOW TIME STEP     1 STRESS PERIOD     3
      4 TOTAL ITERATIONS
     1 CALLS TO GCG PACKAGE FOR TRANSPORT TIME STEP  1007 IN FLOW TIME STEP     1 STRESS PERIOD     3
      4 TOTAL ITERATIONS
     1 CALLS TO GCG PACKAGE FOR TRANSPORT TIME STEP  1008 IN FLOW TIME STEP     1 STRESS PERIOD     3
      4 TOTAL ITERATIONS
     1 CALLS TO GCG PACKAGE FOR TRANSPORT TIME STEP  1009 IN FLOW TIME STEP     1 STRESS PERIOD     3
      4 TOTAL ITERATIONS
     1 CALLS TO GCG PACKAGE FOR TRANSPORT TIME STEP  1010 IN FLOW TIME STEP     1 STRESS PERIOD     3
      4 TOTAL ITERATIONS
     1 CALLS TO GCG PACKAGE FOR TRANSPORT TIME STEP  1011 IN FLOW TIME STEP     1 STRESS PERIOD     3
      3 TOTAL ITERATIONS



 >>>>>>>>>>>>>>>>>>>>>>>>>>>>>>>>>>>>>>>>>>>>>>>>>>>>>>>FOR COMPONENT NO. 01<<<<<<<<<<<<<<<<<<<<<<<<<<<<<<<<<<<<<<<<<<<<<<<<<<<<<<<


                                            -------------------------------------------
                                                      TRANSPORT STEP NO. 1011
                                            -------------------------------------------

 TOTAL ELAPSED TIME SINCE BEGINNING OF SIMULATION =   50.02000    D   
 .....................................................................

                     CUMULATIVE MASS BUDGETS AT END OF TRANSPORT STEP 1011, TIME STEP    1, STRESS PERIOD    3
                     -----------------------------------------------------------------------------------------

                                                             IN                           OUT
                                                      ----------------             ----------------
                               CONSTANT CONCENTRATION:    0.000000                    0.000000    
                                        CONSTANT HEAD:    0.000000                  -0.2486023E-01
                                                WELLS:   0.3086985E-01                0.000000    
                               MASS STOR (FLOW MODEL):    0.000000                    0.000000    
                                MASS STORAGE (SOLUTE):   0.1921652E-04              -0.6028840E-02
                            ---------------------------------------------------------------------------
                                              [TOTAL]:   0.3088907E-01 KG           -0.3088907E-01 KG  

                                                          NET (IN - OUT):   0.3725290E-08
                                                   DISCREPANCY (PERCENT):   0.1206022E-04
     1 CALLS TO GCG PACKAGE FOR TRANSPORT TIME STEP  1012 IN FLOW TIME STEP     1 STRESS PERIOD     3
      4 TOTAL ITERATIONS
     1 CALLS TO GCG PACKAGE FOR TRANSPORT TIME STEP  1013 IN FLOW TIME STEP     1 STRESS PERIOD     3
      4 TOTAL ITERATIONS
     1 CALLS TO GCG PACKAGE FOR TRANSPORT TIME STEP  1014 IN FLOW TIME STEP     1 STRESS PERIOD     3
      4 TOTAL ITERATIONS
     1 CALLS TO GCG PACKAGE FOR TRANSPORT TIME STEP  1015 IN FLOW TIME STEP     1 STRESS PERIOD     3
      4 TOTAL ITERATIONS
     1 CALLS TO GCG PACKAGE FOR TRANSPORT TIME STEP  1016 IN FLOW TIME STEP     1 STRESS PERIOD     3
      4 TOTAL ITERATIONS
     1 CALLS TO GCG PACKAGE FOR TRANSPORT TIME STEP  1017 IN FLOW TIME STEP     1 STRESS PERIOD     3
      4 TOTAL ITERATIONS
     1 CALLS TO GCG PACKAGE FOR TRANSPORT TIME STEP  1018 IN FLOW TIME STEP     1 STRESS PERIOD     3
      4 TOTAL ITERATIONS
     1 CALLS TO GCG PACKAGE FOR TRANSPORT TIME STEP  1019 IN FLOW TIME STEP     1 STRESS PERIOD     3
      4 TOTAL ITERATIONS
     1 CALLS TO GCG PACKAGE FOR TRANSPORT TIME STEP  1020 IN FLOW TIME STEP     1 STRESS PERIOD     3
      4 TOTAL ITERATIONS
     1 CALLS TO GCG PACKAGE FOR TRANSPORT TIME STEP  1021 IN FLOW TIME STEP     1 STRESS PERIOD     3
      4 TOTAL ITERATIONS
     1 CALLS TO GCG PACKAGE FOR TRANSPORT TIME STEP  1022 IN FLOW TIME STEP     1 STRESS PERIOD     3
      4 TOTAL ITERATIONS
     1 CALLS TO GCG PACKAGE FOR TRANSPORT TIME STEP  1023 IN FLOW TIME STEP     1 STRESS PERIOD     3
      4 TOTAL ITERATIONS
     1 CALLS TO GCG PACKAGE FOR TRANSPORT TIME STEP  1024 IN FLOW TIME STEP     1 STRESS PERIOD     3
      4 TOTAL ITERATIONS
     1 CALLS TO GCG PACKAGE FOR TRANSPORT TIME STEP  1025 IN FLOW TIME STEP     1 STRESS PERIOD     3
      4 TOTAL ITERATIONS
     1 CALLS TO GCG PACKAGE FOR TRANSPORT TIME STEP  1026 IN FLOW TIME STEP     1 STRESS PERIOD     3
      4 TOTAL ITERATIONS
     1 CALLS TO GCG PACKAGE FOR TRANSPORT TIME STEP  1027 IN FLOW TIME STEP     1 STRESS PERIOD     3
      4 TOTAL ITERATIONS
     1 CALLS TO GCG PACKAGE FOR TRANSPORT TIME STEP  1028 IN FLOW TIME STEP     1 STRESS PERIOD     3
      4 TOTAL ITERATIONS
     1 CALLS TO GCG PACKAGE FOR TRANSPORT TIME STEP  1029 IN FLOW TIME STEP     1 STRESS PERIOD     3
      4 TOTAL ITERATIONS
     1 CALLS TO GCG PACKAGE FOR TRANSPORT TIME STEP  1030 IN FLOW TIME STEP     1 STRESS PERIOD     3
      4 TOTAL ITERATIONS
     1 CALLS TO GCG PACKAGE FOR TRANSPORT TIME STEP  1031 IN FLOW TIME STEP     1 STRESS PERIOD     3
      4 TOTAL ITERATIONS
     1 CALLS TO GCG PACKAGE FOR TRANSPORT TIME STEP  1032 IN FLOW TIME STEP     1 STRESS PERIOD     3
      4 TOTAL ITERATIONS
     1 CALLS TO GCG PACKAGE FOR TRANSPORT TIME STEP  1033 IN FLOW TIME STEP     1 STRESS PERIOD     3
      4 TOTAL ITERATIONS
     1 CALLS TO GCG PACKAGE FOR TRANSPORT TIME STEP  1034 IN FLOW TIME STEP     1 STRESS PERIOD     3
      4 TOTAL ITERATIONS
     1 CALLS TO GCG PACKAGE FOR TRANSPORT TIME STEP  1035 IN FLOW TIME STEP     1 STRESS PERIOD     3
      4 TOTAL ITERATIONS
     1 CALLS TO GCG PACKAGE FOR TRANSPORT TIME STEP  1036 IN FLOW TIME STEP     1 STRESS PERIOD     3
      4 TOTAL ITERATIONS
     1 CALLS TO GCG PACKAGE FOR TRANSPORT TIME STEP  1037 IN FLOW TIME STEP     1 STRESS PERIOD     3
      4 TOTAL ITERATIONS
     1 CALLS TO GCG PACKAGE FOR TRANSPORT TIME STEP  1038 IN FLOW TIME STEP     1 STRESS PERIOD     3
      4 TOTAL ITERATIONS
     1 CALLS TO GCG PACKAGE FOR TRANSPORT TIME STEP  1039 IN FLOW TIME STEP     1 STRESS PERIOD     3
      4 TOTAL ITERATIONS
     1 CALLS TO GCG PACKAGE FOR TRANSPORT TIME STEP  1040 IN FLOW TIME STEP     1 STRESS PERIOD     3
      4 TOTAL ITERATIONS
     1 CALLS TO GCG PACKAGE FOR TRANSPORT TIME STEP  1041 IN FLOW TIME STEP     1 STRESS PERIOD     3
      4 TOTAL ITERATIONS
     1 CALLS TO GCG PACKAGE FOR TRANSPORT TIME STEP  1042 IN FLOW TIME STEP     1 STRESS PERIOD     3
      4 TOTAL ITERATIONS
     1 CALLS TO GCG PACKAGE FOR TRANSPORT TIME STEP  1043 IN FLOW TIME STEP     1 STRESS PERIOD     3
      4 TOTAL ITERATIONS
     1 CALLS TO GCG PACKAGE FOR TRANSPORT TIME STEP  1044 IN FLOW TIME STEP     1 STRESS PERIOD     3
      4 TOTAL ITERATIONS
     1 CALLS TO GCG PACKAGE FOR TRANSPORT TIME STEP  1045 IN FLOW TIME STEP     1 STRESS PERIOD     3
      4 TOTAL ITERATIONS
     1 CALLS TO GCG PACKAGE FOR TRANSPORT TIME STEP  1046 IN FLOW TIME STEP     1 STRESS PERIOD     3
      4 TOTAL ITERATIONS
     1 CALLS TO GCG PACKAGE FOR TRANSPORT TIME STEP  1047 IN FLOW TIME STEP     1 STRESS PERIOD     3
      4 TOTAL ITERATIONS
     1 CALLS TO GCG PACKAGE FOR TRANSPORT TIME STEP  1048 IN FLOW TIME STEP     1 STRESS PERIOD     3
      4 TOTAL ITERATIONS
     1 CALLS TO GCG PACKAGE FOR TRANSPORT TIME STEP  1049 IN FLOW TIME STEP     1 STRESS PERIOD     3
      4 TOTAL ITERATIONS
     1 CALLS TO GCG PACKAGE FOR TRANSPORT TIME STEP  1050 IN FLOW TIME STEP     1 STRESS PERIOD     3
      4 TOTAL ITERATIONS
     1 CALLS TO GCG PACKAGE FOR TRANSPORT TIME STEP  1051 IN FLOW TIME STEP     1 STRESS PERIOD     3
      4 TOTAL ITERATIONS
     1 CALLS TO GCG PACKAGE FOR TRANSPORT TIME STEP  1052 IN FLOW TIME STEP     1 STRESS PERIOD     3
      4 TOTAL ITERATIONS
     1 CALLS TO GCG PACKAGE FOR TRANSPORT TIME STEP  1053 IN FLOW TIME STEP     1 STRESS PERIOD     3
      4 TOTAL ITERATIONS
     1 CALLS TO GCG PACKAGE FOR TRANSPORT TIME STEP  1054 IN FLOW TIME STEP     1 STRESS PERIOD     3
      4 TOTAL ITERATIONS
     1 CALLS TO GCG PACKAGE FOR TRANSPORT TIME STEP  1055 IN FLOW TIME STEP     1 STRESS PERIOD     3
      4 TOTAL ITERATIONS
     1 CALLS TO GCG PACKAGE FOR TRANSPORT TIME STEP  1056 IN FLOW TIME STEP     1 STRESS PERIOD     3
      4 TOTAL ITERATIONS
     1 CALLS TO GCG PACKAGE FOR TRANSPORT TIME STEP  1057 IN FLOW TIME STEP     1 STRESS PERIOD     3
      3 TOTAL ITERATIONS



 >>>>>>>>>>>>>>>>>>>>>>>>>>>>>>>>>>>>>>>>>>>>>>>>>>>>>>>FOR COMPONENT NO. 01<<<<<<<<<<<<<<<<<<<<<<<<<<<<<<<<<<<<<<<<<<<<<<<<<<<<<<<


                                            -------------------------------------------
                                                      TRANSPORT STEP NO. 1057
                                            -------------------------------------------

 TOTAL ELAPSED TIME SINCE BEGINNING OF SIMULATION =   50.84000    D   
 .....................................................................

                     CUMULATIVE MASS BUDGETS AT END OF TRANSPORT STEP 1057, TIME STEP    1, STRESS PERIOD    3
                     -----------------------------------------------------------------------------------------

                                                             IN                           OUT
                                                      ----------------             ----------------
                               CONSTANT CONCENTRATION:    0.000000                    0.000000    
                                        CONSTANT HEAD:    0.000000                  -0.2536298E-01
                                                WELLS:   0.3137589E-01                0.000000    
                               MASS STOR (FLOW MODEL):    0.000000                    0.000000    
                                MASS STORAGE (SOLUTE):   0.1924088E-04              -0.6032147E-02
                            ---------------------------------------------------------------------------
                                              [TOTAL]:   0.3139513E-01 KG           -0.3139512E-01 KG  

                                                          NET (IN - OUT):   0.1117587E-07
                                                   DISCREPANCY (PERCENT):   0.3559747E-04
     1 CALLS TO GCG PACKAGE FOR TRANSPORT TIME STEP  1058 IN FLOW TIME STEP     1 STRESS PERIOD     3
      4 TOTAL ITERATIONS
     1 CALLS TO GCG PACKAGE FOR TRANSPORT TIME STEP  1059 IN FLOW TIME STEP     1 STRESS PERIOD     3
      4 TOTAL ITERATIONS
     1 CALLS TO GCG PACKAGE FOR TRANSPORT TIME STEP  1060 IN FLOW TIME STEP     1 STRESS PERIOD     3
      4 TOTAL ITERATIONS
     1 CALLS TO GCG PACKAGE FOR TRANSPORT TIME STEP  1061 IN FLOW TIME STEP     1 STRESS PERIOD     3
      4 TOTAL ITERATIONS
     1 CALLS TO GCG PACKAGE FOR TRANSPORT TIME STEP  1062 IN FLOW TIME STEP     1 STRESS PERIOD     3
      4 TOTAL ITERATIONS
     1 CALLS TO GCG PACKAGE FOR TRANSPORT TIME STEP  1063 IN FLOW TIME STEP     1 STRESS PERIOD     3
      4 TOTAL ITERATIONS
     1 CALLS TO GCG PACKAGE FOR TRANSPORT TIME STEP  1064 IN FLOW TIME STEP     1 STRESS PERIOD     3
      4 TOTAL ITERATIONS
     1 CALLS TO GCG PACKAGE FOR TRANSPORT TIME STEP  1065 IN FLOW TIME STEP     1 STRESS PERIOD     3
      4 TOTAL ITERATIONS
     1 CALLS TO GCG PACKAGE FOR TRANSPORT TIME STEP  1066 IN FLOW TIME STEP     1 STRESS PERIOD     3
      4 TOTAL ITERATIONS
     1 CALLS TO GCG PACKAGE FOR TRANSPORT TIME STEP  1067 IN FLOW TIME STEP     1 STRESS PERIOD     3
      4 TOTAL ITERATIONS
     1 CALLS TO GCG PACKAGE FOR TRANSPORT TIME STEP  1068 IN FLOW TIME STEP     1 STRESS PERIOD     3
      4 TOTAL ITERATIONS
     1 CALLS TO GCG PACKAGE FOR TRANSPORT TIME STEP  1069 IN FLOW TIME STEP     1 STRESS PERIOD     3
      4 TOTAL ITERATIONS
     1 CALLS TO GCG PACKAGE FOR TRANSPORT TIME STEP  1070 IN FLOW TIME STEP     1 STRESS PERIOD     3
      4 TOTAL ITERATIONS
     1 CALLS TO GCG PACKAGE FOR TRANSPORT TIME STEP  1071 IN FLOW TIME STEP     1 STRESS PERIOD     3
      4 TOTAL ITERATIONS
     1 CALLS TO GCG PACKAGE FOR TRANSPORT TIME STEP  1072 IN FLOW TIME STEP     1 STRESS PERIOD     3
      4 TOTAL ITERATIONS
     1 CALLS TO GCG PACKAGE FOR TRANSPORT TIME STEP  1073 IN FLOW TIME STEP     1 STRESS PERIOD     3
      4 TOTAL ITERATIONS
     1 CALLS TO GCG PACKAGE FOR TRANSPORT TIME STEP  1074 IN FLOW TIME STEP     1 STRESS PERIOD     3
      4 TOTAL ITERATIONS
     1 CALLS TO GCG PACKAGE FOR TRANSPORT TIME STEP  1075 IN FLOW TIME STEP     1 STRESS PERIOD     3
      4 TOTAL ITERATIONS
     1 CALLS TO GCG PACKAGE FOR TRANSPORT TIME STEP  1076 IN FLOW TIME STEP     1 STRESS PERIOD     3
      4 TOTAL ITERATIONS
     1 CALLS TO GCG PACKAGE FOR TRANSPORT TIME STEP  1077 IN FLOW TIME STEP     1 STRESS PERIOD     3
      4 TOTAL ITERATIONS
     1 CALLS TO GCG PACKAGE FOR TRANSPORT TIME STEP  1078 IN FLOW TIME STEP     1 STRESS PERIOD     3
      4 TOTAL ITERATIONS
     1 CALLS TO GCG PACKAGE FOR TRANSPORT TIME STEP  1079 IN FLOW TIME STEP     1 STRESS PERIOD     3
      4 TOTAL ITERATIONS
     1 CALLS TO GCG PACKAGE FOR TRANSPORT TIME STEP  1080 IN FLOW TIME STEP     1 STRESS PERIOD     3
      4 TOTAL ITERATIONS
     1 CALLS TO GCG PACKAGE FOR TRANSPORT TIME STEP  1081 IN FLOW TIME STEP     1 STRESS PERIOD     3
      4 TOTAL ITERATIONS
     1 CALLS TO GCG PACKAGE FOR TRANSPORT TIME STEP  1082 IN FLOW TIME STEP     1 STRESS PERIOD     3
      4 TOTAL ITERATIONS
     1 CALLS TO GCG PACKAGE FOR TRANSPORT TIME STEP  1083 IN FLOW TIME STEP     1 STRESS PERIOD     3
      4 TOTAL ITERATIONS
     1 CALLS TO GCG PACKAGE FOR TRANSPORT TIME STEP  1084 IN FLOW TIME STEP     1 STRESS PERIOD     3
      4 TOTAL ITERATIONS
     1 CALLS TO GCG PACKAGE FOR TRANSPORT TIME STEP  1085 IN FLOW TIME STEP     1 STRESS PERIOD     3
      4 TOTAL ITERATIONS
     1 CALLS TO GCG PACKAGE FOR TRANSPORT TIME STEP  1086 IN FLOW TIME STEP     1 STRESS PERIOD     3
      4 TOTAL ITERATIONS
     1 CALLS TO GCG PACKAGE FOR TRANSPORT TIME STEP  1087 IN FLOW TIME STEP     1 STRESS PERIOD     3
      4 TOTAL ITERATIONS
     1 CALLS TO GCG PACKAGE FOR TRANSPORT TIME STEP  1088 IN FLOW TIME STEP     1 STRESS PERIOD     3
      4 TOTAL ITERATIONS
     1 CALLS TO GCG PACKAGE FOR TRANSPORT TIME STEP  1089 IN FLOW TIME STEP     1 STRESS PERIOD     3
      4 TOTAL ITERATIONS
     1 CALLS TO GCG PACKAGE FOR TRANSPORT TIME STEP  1090 IN FLOW TIME STEP     1 STRESS PERIOD     3
      4 TOTAL ITERATIONS
     1 CALLS TO GCG PACKAGE FOR TRANSPORT TIME STEP  1091 IN FLOW TIME STEP     1 STRESS PERIOD     3
      4 TOTAL ITERATIONS
     1 CALLS TO GCG PACKAGE FOR TRANSPORT TIME STEP  1092 IN FLOW TIME STEP     1 STRESS PERIOD     3
      4 TOTAL ITERATIONS
     1 CALLS TO GCG PACKAGE FOR TRANSPORT TIME STEP  1093 IN FLOW TIME STEP     1 STRESS PERIOD     3
      4 TOTAL ITERATIONS
     1 CALLS TO GCG PACKAGE FOR TRANSPORT TIME STEP  1094 IN FLOW TIME STEP     1 STRESS PERIOD     3
      4 TOTAL ITERATIONS
     1 CALLS TO GCG PACKAGE FOR TRANSPORT TIME STEP  1095 IN FLOW TIME STEP     1 STRESS PERIOD     3
      4 TOTAL ITERATIONS
     1 CALLS TO GCG PACKAGE FOR TRANSPORT TIME STEP  1096 IN FLOW TIME STEP     1 STRESS PERIOD     3
      4 TOTAL ITERATIONS
     1 CALLS TO GCG PACKAGE FOR TRANSPORT TIME STEP  1097 IN FLOW TIME STEP     1 STRESS PERIOD     3
      4 TOTAL ITERATIONS
     1 CALLS TO GCG PACKAGE FOR TRANSPORT TIME STEP  1098 IN FLOW TIME STEP     1 STRESS PERIOD     3
      4 TOTAL ITERATIONS
     1 CALLS TO GCG PACKAGE FOR TRANSPORT TIME STEP  1099 IN FLOW TIME STEP     1 STRESS PERIOD     3
      4 TOTAL ITERATIONS
     1 CALLS TO GCG PACKAGE FOR TRANSPORT TIME STEP  1100 IN FLOW TIME STEP     1 STRESS PERIOD     3
      4 TOTAL ITERATIONS
     1 CALLS TO GCG PACKAGE FOR TRANSPORT TIME STEP  1101 IN FLOW TIME STEP     1 STRESS PERIOD     3
      4 TOTAL ITERATIONS
     1 CALLS TO GCG PACKAGE FOR TRANSPORT TIME STEP  1102 IN FLOW TIME STEP     1 STRESS PERIOD     3
      4 TOTAL ITERATIONS
     1 CALLS TO GCG PACKAGE FOR TRANSPORT TIME STEP  1103 IN FLOW TIME STEP     1 STRESS PERIOD     3
      3 TOTAL ITERATIONS



 >>>>>>>>>>>>>>>>>>>>>>>>>>>>>>>>>>>>>>>>>>>>>>>>>>>>>>>FOR COMPONENT NO. 01<<<<<<<<<<<<<<<<<<<<<<<<<<<<<<<<<<<<<<<<<<<<<<<<<<<<<<<


                                            -------------------------------------------
                                                      TRANSPORT STEP NO. 1103
                                            -------------------------------------------

 TOTAL ELAPSED TIME SINCE BEGINNING OF SIMULATION =   51.66000    D   
 .....................................................................

                     CUMULATIVE MASS BUDGETS AT END OF TRANSPORT STEP 1103, TIME STEP    1, STRESS PERIOD    3
                     -----------------------------------------------------------------------------------------

                                                             IN                           OUT
                                                      ----------------             ----------------
                               CONSTANT CONCENTRATION:    0.000000                    0.000000    
                                        CONSTANT HEAD:    0.000000                  -0.2586593E-01
                                                WELLS:   0.3188187E-01                0.000000    
                               MASS STOR (FLOW MODEL):    0.000000                    0.000000    
                                MASS STORAGE (SOLUTE):   0.1926533E-04              -0.6035250E-02
                            ---------------------------------------------------------------------------
                                              [TOTAL]:   0.3190113E-01 KG           -0.3190118E-01 KG  

                                                          NET (IN - OUT):  -0.4470348E-07
                                                   DISCREPANCY (PERCENT):  -0.1401312E-03
     1 CALLS TO GCG PACKAGE FOR TRANSPORT TIME STEP  1104 IN FLOW TIME STEP     1 STRESS PERIOD     3
      4 TOTAL ITERATIONS
     1 CALLS TO GCG PACKAGE FOR TRANSPORT TIME STEP  1105 IN FLOW TIME STEP     1 STRESS PERIOD     3
      4 TOTAL ITERATIONS
     1 CALLS TO GCG PACKAGE FOR TRANSPORT TIME STEP  1106 IN FLOW TIME STEP     1 STRESS PERIOD     3
      4 TOTAL ITERATIONS
     1 CALLS TO GCG PACKAGE FOR TRANSPORT TIME STEP  1107 IN FLOW TIME STEP     1 STRESS PERIOD     3
      4 TOTAL ITERATIONS
     1 CALLS TO GCG PACKAGE FOR TRANSPORT TIME STEP  1108 IN FLOW TIME STEP     1 STRESS PERIOD     3
      4 TOTAL ITERATIONS
     1 CALLS TO GCG PACKAGE FOR TRANSPORT TIME STEP  1109 IN FLOW TIME STEP     1 STRESS PERIOD     3
      4 TOTAL ITERATIONS
     1 CALLS TO GCG PACKAGE FOR TRANSPORT TIME STEP  1110 IN FLOW TIME STEP     1 STRESS PERIOD     3
      4 TOTAL ITERATIONS
     1 CALLS TO GCG PACKAGE FOR TRANSPORT TIME STEP  1111 IN FLOW TIME STEP     1 STRESS PERIOD     3
      4 TOTAL ITERATIONS
     1 CALLS TO GCG PACKAGE FOR TRANSPORT TIME STEP  1112 IN FLOW TIME STEP     1 STRESS PERIOD     3
      4 TOTAL ITERATIONS
     1 CALLS TO GCG PACKAGE FOR TRANSPORT TIME STEP  1113 IN FLOW TIME STEP     1 STRESS PERIOD     3
      4 TOTAL ITERATIONS
     1 CALLS TO GCG PACKAGE FOR TRANSPORT TIME STEP  1114 IN FLOW TIME STEP     1 STRESS PERIOD     3
      4 TOTAL ITERATIONS
     1 CALLS TO GCG PACKAGE FOR TRANSPORT TIME STEP  1115 IN FLOW TIME STEP     1 STRESS PERIOD     3
      4 TOTAL ITERATIONS
     1 CALLS TO GCG PACKAGE FOR TRANSPORT TIME STEP  1116 IN FLOW TIME STEP     1 STRESS PERIOD     3
      4 TOTAL ITERATIONS
     1 CALLS TO GCG PACKAGE FOR TRANSPORT TIME STEP  1117 IN FLOW TIME STEP     1 STRESS PERIOD     3
      4 TOTAL ITERATIONS
     1 CALLS TO GCG PACKAGE FOR TRANSPORT TIME STEP  1118 IN FLOW TIME STEP     1 STRESS PERIOD     3
      4 TOTAL ITERATIONS
     1 CALLS TO GCG PACKAGE FOR TRANSPORT TIME STEP  1119 IN FLOW TIME STEP     1 STRESS PERIOD     3
      4 TOTAL ITERATIONS
     1 CALLS TO GCG PACKAGE FOR TRANSPORT TIME STEP  1120 IN FLOW TIME STEP     1 STRESS PERIOD     3
      4 TOTAL ITERATIONS
     1 CALLS TO GCG PACKAGE FOR TRANSPORT TIME STEP  1121 IN FLOW TIME STEP     1 STRESS PERIOD     3
      4 TOTAL ITERATIONS
     1 CALLS TO GCG PACKAGE FOR TRANSPORT TIME STEP  1122 IN FLOW TIME STEP     1 STRESS PERIOD     3
      4 TOTAL ITERATIONS
     1 CALLS TO GCG PACKAGE FOR TRANSPORT TIME STEP  1123 IN FLOW TIME STEP     1 STRESS PERIOD     3
      4 TOTAL ITERATIONS
     1 CALLS TO GCG PACKAGE FOR TRANSPORT TIME STEP  1124 IN FLOW TIME STEP     1 STRESS PERIOD     3
      4 TOTAL ITERATIONS
     1 CALLS TO GCG PACKAGE FOR TRANSPORT TIME STEP  1125 IN FLOW TIME STEP     1 STRESS PERIOD     3
      4 TOTAL ITERATIONS
     1 CALLS TO GCG PACKAGE FOR TRANSPORT TIME STEP  1126 IN FLOW TIME STEP     1 STRESS PERIOD     3
      4 TOTAL ITERATIONS
     1 CALLS TO GCG PACKAGE FOR TRANSPORT TIME STEP  1127 IN FLOW TIME STEP     1 STRESS PERIOD     3
      4 TOTAL ITERATIONS
     1 CALLS TO GCG PACKAGE FOR TRANSPORT TIME STEP  1128 IN FLOW TIME STEP     1 STRESS PERIOD     3
      4 TOTAL ITERATIONS
     1 CALLS TO GCG PACKAGE FOR TRANSPORT TIME STEP  1129 IN FLOW TIME STEP     1 STRESS PERIOD     3
      4 TOTAL ITERATIONS
     1 CALLS TO GCG PACKAGE FOR TRANSPORT TIME STEP  1130 IN FLOW TIME STEP     1 STRESS PERIOD     3
      4 TOTAL ITERATIONS
     1 CALLS TO GCG PACKAGE FOR TRANSPORT TIME STEP  1131 IN FLOW TIME STEP     1 STRESS PERIOD     3
      4 TOTAL ITERATIONS
     1 CALLS TO GCG PACKAGE FOR TRANSPORT TIME STEP  1132 IN FLOW TIME STEP     1 STRESS PERIOD     3
      4 TOTAL ITERATIONS
     1 CALLS TO GCG PACKAGE FOR TRANSPORT TIME STEP  1133 IN FLOW TIME STEP     1 STRESS PERIOD     3
      4 TOTAL ITERATIONS
     1 CALLS TO GCG PACKAGE FOR TRANSPORT TIME STEP  1134 IN FLOW TIME STEP     1 STRESS PERIOD     3
      4 TOTAL ITERATIONS
     1 CALLS TO GCG PACKAGE FOR TRANSPORT TIME STEP  1135 IN FLOW TIME STEP     1 STRESS PERIOD     3
      4 TOTAL ITERATIONS
     1 CALLS TO GCG PACKAGE FOR TRANSPORT TIME STEP  1136 IN FLOW TIME STEP     1 STRESS PERIOD     3
      4 TOTAL ITERATIONS
     1 CALLS TO GCG PACKAGE FOR TRANSPORT TIME STEP  1137 IN FLOW TIME STEP     1 STRESS PERIOD     3
      4 TOTAL ITERATIONS
     1 CALLS TO GCG PACKAGE FOR TRANSPORT TIME STEP  1138 IN FLOW TIME STEP     1 STRESS PERIOD     3
      4 TOTAL ITERATIONS
     1 CALLS TO GCG PACKAGE FOR TRANSPORT TIME STEP  1139 IN FLOW TIME STEP     1 STRESS PERIOD     3
      4 TOTAL ITERATIONS
     1 CALLS TO GCG PACKAGE FOR TRANSPORT TIME STEP  1140 IN FLOW TIME STEP     1 STRESS PERIOD     3
      4 TOTAL ITERATIONS
     1 CALLS TO GCG PACKAGE FOR TRANSPORT TIME STEP  1141 IN FLOW TIME STEP     1 STRESS PERIOD     3
      4 TOTAL ITERATIONS
     1 CALLS TO GCG PACKAGE FOR TRANSPORT TIME STEP  1142 IN FLOW TIME STEP     1 STRESS PERIOD     3
      4 TOTAL ITERATIONS
     1 CALLS TO GCG PACKAGE FOR TRANSPORT TIME STEP  1143 IN FLOW TIME STEP     1 STRESS PERIOD     3
      4 TOTAL ITERATIONS
     1 CALLS TO GCG PACKAGE FOR TRANSPORT TIME STEP  1144 IN FLOW TIME STEP     1 STRESS PERIOD     3
      4 TOTAL ITERATIONS
     1 CALLS TO GCG PACKAGE FOR TRANSPORT TIME STEP  1145 IN FLOW TIME STEP     1 STRESS PERIOD     3
      4 TOTAL ITERATIONS
     1 CALLS TO GCG PACKAGE FOR TRANSPORT TIME STEP  1146 IN FLOW TIME STEP     1 STRESS PERIOD     3
      4 TOTAL ITERATIONS
     1 CALLS TO GCG PACKAGE FOR TRANSPORT TIME STEP  1147 IN FLOW TIME STEP     1 STRESS PERIOD     3
      4 TOTAL ITERATIONS
     1 CALLS TO GCG PACKAGE FOR TRANSPORT TIME STEP  1148 IN FLOW TIME STEP     1 STRESS PERIOD     3
      4 TOTAL ITERATIONS
     1 CALLS TO GCG PACKAGE FOR TRANSPORT TIME STEP  1149 IN FLOW TIME STEP     1 STRESS PERIOD     3
      3 TOTAL ITERATIONS



 >>>>>>>>>>>>>>>>>>>>>>>>>>>>>>>>>>>>>>>>>>>>>>>>>>>>>>>FOR COMPONENT NO. 01<<<<<<<<<<<<<<<<<<<<<<<<<<<<<<<<<<<<<<<<<<<<<<<<<<<<<<<


                                            -------------------------------------------
                                                      TRANSPORT STEP NO. 1149
                                            -------------------------------------------

 TOTAL ELAPSED TIME SINCE BEGINNING OF SIMULATION =   52.48000    D   
 .....................................................................

                     CUMULATIVE MASS BUDGETS AT END OF TRANSPORT STEP 1149, TIME STEP    1, STRESS PERIOD    3
                     -----------------------------------------------------------------------------------------

                                                             IN                           OUT
                                                      ----------------             ----------------
                               CONSTANT CONCENTRATION:    0.000000                    0.000000    
                                        CONSTANT HEAD:    0.000000                  -0.2636907E-01
                                                WELLS:   0.3238785E-01                0.000000    
                               MASS STOR (FLOW MODEL):    0.000000                    0.000000    
                                MASS STORAGE (SOLUTE):   0.1928991E-04              -0.6038164E-02
                            ---------------------------------------------------------------------------
                                              [TOTAL]:   0.3240713E-01 KG           -0.3240723E-01 KG  

                                                          NET (IN - OUT):  -0.9313226E-07
                                                   DISCREPANCY (PERCENT):  -0.2873816E-03
     1 CALLS TO GCG PACKAGE FOR TRANSPORT TIME STEP  1150 IN FLOW TIME STEP     1 STRESS PERIOD     3
      4 TOTAL ITERATIONS
     1 CALLS TO GCG PACKAGE FOR TRANSPORT TIME STEP  1151 IN FLOW TIME STEP     1 STRESS PERIOD     3
      4 TOTAL ITERATIONS
     1 CALLS TO GCG PACKAGE FOR TRANSPORT TIME STEP  1152 IN FLOW TIME STEP     1 STRESS PERIOD     3
      4 TOTAL ITERATIONS
     1 CALLS TO GCG PACKAGE FOR TRANSPORT TIME STEP  1153 IN FLOW TIME STEP     1 STRESS PERIOD     3
      4 TOTAL ITERATIONS
     1 CALLS TO GCG PACKAGE FOR TRANSPORT TIME STEP  1154 IN FLOW TIME STEP     1 STRESS PERIOD     3
      4 TOTAL ITERATIONS
     1 CALLS TO GCG PACKAGE FOR TRANSPORT TIME STEP  1155 IN FLOW TIME STEP     1 STRESS PERIOD     3
      4 TOTAL ITERATIONS
     1 CALLS TO GCG PACKAGE FOR TRANSPORT TIME STEP  1156 IN FLOW TIME STEP     1 STRESS PERIOD     3
      4 TOTAL ITERATIONS
     1 CALLS TO GCG PACKAGE FOR TRANSPORT TIME STEP  1157 IN FLOW TIME STEP     1 STRESS PERIOD     3
      4 TOTAL ITERATIONS
     1 CALLS TO GCG PACKAGE FOR TRANSPORT TIME STEP  1158 IN FLOW TIME STEP     1 STRESS PERIOD     3
      4 TOTAL ITERATIONS
     1 CALLS TO GCG PACKAGE FOR TRANSPORT TIME STEP  1159 IN FLOW TIME STEP     1 STRESS PERIOD     3
      4 TOTAL ITERATIONS
     1 CALLS TO GCG PACKAGE FOR TRANSPORT TIME STEP  1160 IN FLOW TIME STEP     1 STRESS PERIOD     3
      4 TOTAL ITERATIONS
     1 CALLS TO GCG PACKAGE FOR TRANSPORT TIME STEP  1161 IN FLOW TIME STEP     1 STRESS PERIOD     3
      4 TOTAL ITERATIONS
     1 CALLS TO GCG PACKAGE FOR TRANSPORT TIME STEP  1162 IN FLOW TIME STEP     1 STRESS PERIOD     3
      4 TOTAL ITERATIONS
     1 CALLS TO GCG PACKAGE FOR TRANSPORT TIME STEP  1163 IN FLOW TIME STEP     1 STRESS PERIOD     3
      4 TOTAL ITERATIONS
     1 CALLS TO GCG PACKAGE FOR TRANSPORT TIME STEP  1164 IN FLOW TIME STEP     1 STRESS PERIOD     3
      4 TOTAL ITERATIONS
     1 CALLS TO GCG PACKAGE FOR TRANSPORT TIME STEP  1165 IN FLOW TIME STEP     1 STRESS PERIOD     3
      4 TOTAL ITERATIONS
     1 CALLS TO GCG PACKAGE FOR TRANSPORT TIME STEP  1166 IN FLOW TIME STEP     1 STRESS PERIOD     3
      4 TOTAL ITERATIONS
     1 CALLS TO GCG PACKAGE FOR TRANSPORT TIME STEP  1167 IN FLOW TIME STEP     1 STRESS PERIOD     3
      4 TOTAL ITERATIONS
     1 CALLS TO GCG PACKAGE FOR TRANSPORT TIME STEP  1168 IN FLOW TIME STEP     1 STRESS PERIOD     3
      4 TOTAL ITERATIONS
     1 CALLS TO GCG PACKAGE FOR TRANSPORT TIME STEP  1169 IN FLOW TIME STEP     1 STRESS PERIOD     3
      4 TOTAL ITERATIONS
     1 CALLS TO GCG PACKAGE FOR TRANSPORT TIME STEP  1170 IN FLOW TIME STEP     1 STRESS PERIOD     3
      4 TOTAL ITERATIONS
     1 CALLS TO GCG PACKAGE FOR TRANSPORT TIME STEP  1171 IN FLOW TIME STEP     1 STRESS PERIOD     3
      4 TOTAL ITERATIONS
     1 CALLS TO GCG PACKAGE FOR TRANSPORT TIME STEP  1172 IN FLOW TIME STEP     1 STRESS PERIOD     3
      4 TOTAL ITERATIONS
     1 CALLS TO GCG PACKAGE FOR TRANSPORT TIME STEP  1173 IN FLOW TIME STEP     1 STRESS PERIOD     3
      4 TOTAL ITERATIONS
     1 CALLS TO GCG PACKAGE FOR TRANSPORT TIME STEP  1174 IN FLOW TIME STEP     1 STRESS PERIOD     3
      4 TOTAL ITERATIONS
     1 CALLS TO GCG PACKAGE FOR TRANSPORT TIME STEP  1175 IN FLOW TIME STEP     1 STRESS PERIOD     3
      4 TOTAL ITERATIONS
     1 CALLS TO GCG PACKAGE FOR TRANSPORT TIME STEP  1176 IN FLOW TIME STEP     1 STRESS PERIOD     3
      4 TOTAL ITERATIONS
     1 CALLS TO GCG PACKAGE FOR TRANSPORT TIME STEP  1177 IN FLOW TIME STEP     1 STRESS PERIOD     3
      4 TOTAL ITERATIONS
     1 CALLS TO GCG PACKAGE FOR TRANSPORT TIME STEP  1178 IN FLOW TIME STEP     1 STRESS PERIOD     3
      4 TOTAL ITERATIONS
     1 CALLS TO GCG PACKAGE FOR TRANSPORT TIME STEP  1179 IN FLOW TIME STEP     1 STRESS PERIOD     3
      4 TOTAL ITERATIONS
     1 CALLS TO GCG PACKAGE FOR TRANSPORT TIME STEP  1180 IN FLOW TIME STEP     1 STRESS PERIOD     3
      4 TOTAL ITERATIONS
     1 CALLS TO GCG PACKAGE FOR TRANSPORT TIME STEP  1181 IN FLOW TIME STEP     1 STRESS PERIOD     3
      4 TOTAL ITERATIONS
     1 CALLS TO GCG PACKAGE FOR TRANSPORT TIME STEP  1182 IN FLOW TIME STEP     1 STRESS PERIOD     3
      4 TOTAL ITERATIONS
     1 CALLS TO GCG PACKAGE FOR TRANSPORT TIME STEP  1183 IN FLOW TIME STEP     1 STRESS PERIOD     3
      4 TOTAL ITERATIONS
     1 CALLS TO GCG PACKAGE FOR TRANSPORT TIME STEP  1184 IN FLOW TIME STEP     1 STRESS PERIOD     3
      4 TOTAL ITERATIONS
     1 CALLS TO GCG PACKAGE FOR TRANSPORT TIME STEP  1185 IN FLOW TIME STEP     1 STRESS PERIOD     3
      4 TOTAL ITERATIONS
     1 CALLS TO GCG PACKAGE FOR TRANSPORT TIME STEP  1186 IN FLOW TIME STEP     1 STRESS PERIOD     3
      4 TOTAL ITERATIONS
     1 CALLS TO GCG PACKAGE FOR TRANSPORT TIME STEP  1187 IN FLOW TIME STEP     1 STRESS PERIOD     3
      4 TOTAL ITERATIONS
     1 CALLS TO GCG PACKAGE FOR TRANSPORT TIME STEP  1188 IN FLOW TIME STEP     1 STRESS PERIOD     3
      4 TOTAL ITERATIONS
     1 CALLS TO GCG PACKAGE FOR TRANSPORT TIME STEP  1189 IN FLOW TIME STEP     1 STRESS PERIOD     3
      4 TOTAL ITERATIONS
     1 CALLS TO GCG PACKAGE FOR TRANSPORT TIME STEP  1190 IN FLOW TIME STEP     1 STRESS PERIOD     3
      4 TOTAL ITERATIONS
     1 CALLS TO GCG PACKAGE FOR TRANSPORT TIME STEP  1191 IN FLOW TIME STEP     1 STRESS PERIOD     3
      4 TOTAL ITERATIONS
     1 CALLS TO GCG PACKAGE FOR TRANSPORT TIME STEP  1192 IN FLOW TIME STEP     1 STRESS PERIOD     3
      4 TOTAL ITERATIONS
     1 CALLS TO GCG PACKAGE FOR TRANSPORT TIME STEP  1193 IN FLOW TIME STEP     1 STRESS PERIOD     3
      4 TOTAL ITERATIONS
     1 CALLS TO GCG PACKAGE FOR TRANSPORT TIME STEP  1194 IN FLOW TIME STEP     1 STRESS PERIOD     3
      4 TOTAL ITERATIONS
     1 CALLS TO GCG PACKAGE FOR TRANSPORT TIME STEP  1195 IN FLOW TIME STEP     1 STRESS PERIOD     3
      3 TOTAL ITERATIONS



 >>>>>>>>>>>>>>>>>>>>>>>>>>>>>>>>>>>>>>>>>>>>>>>>>>>>>>>FOR COMPONENT NO. 01<<<<<<<<<<<<<<<<<<<<<<<<<<<<<<<<<<<<<<<<<<<<<<<<<<<<<<<


                                            -------------------------------------------
                                                      TRANSPORT STEP NO. 1195
                                            -------------------------------------------

 TOTAL ELAPSED TIME SINCE BEGINNING OF SIMULATION =   53.30000    D   
 .....................................................................

                     CUMULATIVE MASS BUDGETS AT END OF TRANSPORT STEP 1195, TIME STEP    1, STRESS PERIOD    3
                     -----------------------------------------------------------------------------------------

                                                             IN                           OUT
                                                      ----------------             ----------------
                               CONSTANT CONCENTRATION:    0.000000                    0.000000    
                                        CONSTANT HEAD:    0.000000                  -0.2687239E-01
                                                WELLS:   0.3289382E-01                0.000000    
                               MASS STOR (FLOW MODEL):    0.000000                    0.000000    
                                MASS STORAGE (SOLUTE):   0.1931463E-04              -0.6040899E-02
                            ---------------------------------------------------------------------------
                                              [TOTAL]:   0.3291314E-01 KG           -0.3291328E-01 KG  

                                                          NET (IN - OUT):  -0.1452863E-06
                                                   DISCREPANCY (PERCENT):  -0.4414225E-03
     1 CALLS TO GCG PACKAGE FOR TRANSPORT TIME STEP  1196 IN FLOW TIME STEP     1 STRESS PERIOD     3
      4 TOTAL ITERATIONS
     1 CALLS TO GCG PACKAGE FOR TRANSPORT TIME STEP  1197 IN FLOW TIME STEP     1 STRESS PERIOD     3
      4 TOTAL ITERATIONS
     1 CALLS TO GCG PACKAGE FOR TRANSPORT TIME STEP  1198 IN FLOW TIME STEP     1 STRESS PERIOD     3
      4 TOTAL ITERATIONS
     1 CALLS TO GCG PACKAGE FOR TRANSPORT TIME STEP  1199 IN FLOW TIME STEP     1 STRESS PERIOD     3
      4 TOTAL ITERATIONS
     1 CALLS TO GCG PACKAGE FOR TRANSPORT TIME STEP  1200 IN FLOW TIME STEP     1 STRESS PERIOD     3
      4 TOTAL ITERATIONS
     1 CALLS TO GCG PACKAGE FOR TRANSPORT TIME STEP  1201 IN FLOW TIME STEP     1 STRESS PERIOD     3
      4 TOTAL ITERATIONS
     1 CALLS TO GCG PACKAGE FOR TRANSPORT TIME STEP  1202 IN FLOW TIME STEP     1 STRESS PERIOD     3
      4 TOTAL ITERATIONS
     1 CALLS TO GCG PACKAGE FOR TRANSPORT TIME STEP  1203 IN FLOW TIME STEP     1 STRESS PERIOD     3
      4 TOTAL ITERATIONS
     1 CALLS TO GCG PACKAGE FOR TRANSPORT TIME STEP  1204 IN FLOW TIME STEP     1 STRESS PERIOD     3
      4 TOTAL ITERATIONS
     1 CALLS TO GCG PACKAGE FOR TRANSPORT TIME STEP  1205 IN FLOW TIME STEP     1 STRESS PERIOD     3
      4 TOTAL ITERATIONS
     1 CALLS TO GCG PACKAGE FOR TRANSPORT TIME STEP  1206 IN FLOW TIME STEP     1 STRESS PERIOD     3
      4 TOTAL ITERATIONS
     1 CALLS TO GCG PACKAGE FOR TRANSPORT TIME STEP  1207 IN FLOW TIME STEP     1 STRESS PERIOD     3
      4 TOTAL ITERATIONS
     1 CALLS TO GCG PACKAGE FOR TRANSPORT TIME STEP  1208 IN FLOW TIME STEP     1 STRESS PERIOD     3
      4 TOTAL ITERATIONS
     1 CALLS TO GCG PACKAGE FOR TRANSPORT TIME STEP  1209 IN FLOW TIME STEP     1 STRESS PERIOD     3
      4 TOTAL ITERATIONS
     1 CALLS TO GCG PACKAGE FOR TRANSPORT TIME STEP  1210 IN FLOW TIME STEP     1 STRESS PERIOD     3
      4 TOTAL ITERATIONS
     1 CALLS TO GCG PACKAGE FOR TRANSPORT TIME STEP  1211 IN FLOW TIME STEP     1 STRESS PERIOD     3
      4 TOTAL ITERATIONS
     1 CALLS TO GCG PACKAGE FOR TRANSPORT TIME STEP  1212 IN FLOW TIME STEP     1 STRESS PERIOD     3
      4 TOTAL ITERATIONS
     1 CALLS TO GCG PACKAGE FOR TRANSPORT TIME STEP  1213 IN FLOW TIME STEP     1 STRESS PERIOD     3
      4 TOTAL ITERATIONS
     1 CALLS TO GCG PACKAGE FOR TRANSPORT TIME STEP  1214 IN FLOW TIME STEP     1 STRESS PERIOD     3
      4 TOTAL ITERATIONS
     1 CALLS TO GCG PACKAGE FOR TRANSPORT TIME STEP  1215 IN FLOW TIME STEP     1 STRESS PERIOD     3
      4 TOTAL ITERATIONS
     1 CALLS TO GCG PACKAGE FOR TRANSPORT TIME STEP  1216 IN FLOW TIME STEP     1 STRESS PERIOD     3
      4 TOTAL ITERATIONS
     1 CALLS TO GCG PACKAGE FOR TRANSPORT TIME STEP  1217 IN FLOW TIME STEP     1 STRESS PERIOD     3
      4 TOTAL ITERATIONS
     1 CALLS TO GCG PACKAGE FOR TRANSPORT TIME STEP  1218 IN FLOW TIME STEP     1 STRESS PERIOD     3
      4 TOTAL ITERATIONS
     1 CALLS TO GCG PACKAGE FOR TRANSPORT TIME STEP  1219 IN FLOW TIME STEP     1 STRESS PERIOD     3
      4 TOTAL ITERATIONS
     1 CALLS TO GCG PACKAGE FOR TRANSPORT TIME STEP  1220 IN FLOW TIME STEP     1 STRESS PERIOD     3
      4 TOTAL ITERATIONS
     1 CALLS TO GCG PACKAGE FOR TRANSPORT TIME STEP  1221 IN FLOW TIME STEP     1 STRESS PERIOD     3
      4 TOTAL ITERATIONS
     1 CALLS TO GCG PACKAGE FOR TRANSPORT TIME STEP  1222 IN FLOW TIME STEP     1 STRESS PERIOD     3
      4 TOTAL ITERATIONS
     1 CALLS TO GCG PACKAGE FOR TRANSPORT TIME STEP  1223 IN FLOW TIME STEP     1 STRESS PERIOD     3
      4 TOTAL ITERATIONS
     1 CALLS TO GCG PACKAGE FOR TRANSPORT TIME STEP  1224 IN FLOW TIME STEP     1 STRESS PERIOD     3
      4 TOTAL ITERATIONS
     1 CALLS TO GCG PACKAGE FOR TRANSPORT TIME STEP  1225 IN FLOW TIME STEP     1 STRESS PERIOD     3
      4 TOTAL ITERATIONS
     1 CALLS TO GCG PACKAGE FOR TRANSPORT TIME STEP  1226 IN FLOW TIME STEP     1 STRESS PERIOD     3
      4 TOTAL ITERATIONS
     1 CALLS TO GCG PACKAGE FOR TRANSPORT TIME STEP  1227 IN FLOW TIME STEP     1 STRESS PERIOD     3
      4 TOTAL ITERATIONS
     1 CALLS TO GCG PACKAGE FOR TRANSPORT TIME STEP  1228 IN FLOW TIME STEP     1 STRESS PERIOD     3
      4 TOTAL ITERATIONS
     1 CALLS TO GCG PACKAGE FOR TRANSPORT TIME STEP  1229 IN FLOW TIME STEP     1 STRESS PERIOD     3
      4 TOTAL ITERATIONS
     1 CALLS TO GCG PACKAGE FOR TRANSPORT TIME STEP  1230 IN FLOW TIME STEP     1 STRESS PERIOD     3
      4 TOTAL ITERATIONS
     1 CALLS TO GCG PACKAGE FOR TRANSPORT TIME STEP  1231 IN FLOW TIME STEP     1 STRESS PERIOD     3
      4 TOTAL ITERATIONS
     1 CALLS TO GCG PACKAGE FOR TRANSPORT TIME STEP  1232 IN FLOW TIME STEP     1 STRESS PERIOD     3
      4 TOTAL ITERATIONS
     1 CALLS TO GCG PACKAGE FOR TRANSPORT TIME STEP  1233 IN FLOW TIME STEP     1 STRESS PERIOD     3
      4 TOTAL ITERATIONS
     1 CALLS TO GCG PACKAGE FOR TRANSPORT TIME STEP  1234 IN FLOW TIME STEP     1 STRESS PERIOD     3
      4 TOTAL ITERATIONS
     1 CALLS TO GCG PACKAGE FOR TRANSPORT TIME STEP  1235 IN FLOW TIME STEP     1 STRESS PERIOD     3
      4 TOTAL ITERATIONS
     1 CALLS TO GCG PACKAGE FOR TRANSPORT TIME STEP  1236 IN FLOW TIME STEP     1 STRESS PERIOD     3
      4 TOTAL ITERATIONS
     1 CALLS TO GCG PACKAGE FOR TRANSPORT TIME STEP  1237 IN FLOW TIME STEP     1 STRESS PERIOD     3
      4 TOTAL ITERATIONS
     1 CALLS TO GCG PACKAGE FOR TRANSPORT TIME STEP  1238 IN FLOW TIME STEP     1 STRESS PERIOD     3
      4 TOTAL ITERATIONS
     1 CALLS TO GCG PACKAGE FOR TRANSPORT TIME STEP  1239 IN FLOW TIME STEP     1 STRESS PERIOD     3
      4 TOTAL ITERATIONS
     1 CALLS TO GCG PACKAGE FOR TRANSPORT TIME STEP  1240 IN FLOW TIME STEP     1 STRESS PERIOD     3
      4 TOTAL ITERATIONS
     1 CALLS TO GCG PACKAGE FOR TRANSPORT TIME STEP  1241 IN FLOW TIME STEP     1 STRESS PERIOD     3
      3 TOTAL ITERATIONS



 >>>>>>>>>>>>>>>>>>>>>>>>>>>>>>>>>>>>>>>>>>>>>>>>>>>>>>>FOR COMPONENT NO. 01<<<<<<<<<<<<<<<<<<<<<<<<<<<<<<<<<<<<<<<<<<<<<<<<<<<<<<<


                                            -------------------------------------------
                                                      TRANSPORT STEP NO. 1241
                                            -------------------------------------------

 TOTAL ELAPSED TIME SINCE BEGINNING OF SIMULATION =   54.12000    D   
 .....................................................................

                     CUMULATIVE MASS BUDGETS AT END OF TRANSPORT STEP 1241, TIME STEP    1, STRESS PERIOD    3
                     -----------------------------------------------------------------------------------------

                                                             IN                           OUT
                                                      ----------------             ----------------
                               CONSTANT CONCENTRATION:    0.000000                    0.000000    
                                        CONSTANT HEAD:    0.000000                  -0.2737587E-01
                                                WELLS:   0.3339980E-01                0.000000    
                               MASS STOR (FLOW MODEL):    0.000000                    0.000000    
                                MASS STORAGE (SOLUTE):   0.1933939E-04              -0.6043466E-02
                            ---------------------------------------------------------------------------
                                              [TOTAL]:   0.3341914E-01 KG           -0.3341934E-01 KG  

                                                          NET (IN - OUT):  -0.2048910E-06
                                                   DISCREPANCY (PERCENT):  -0.6130929E-03
     1 CALLS TO GCG PACKAGE FOR TRANSPORT TIME STEP  1242 IN FLOW TIME STEP     1 STRESS PERIOD     3
      4 TOTAL ITERATIONS
     1 CALLS TO GCG PACKAGE FOR TRANSPORT TIME STEP  1243 IN FLOW TIME STEP     1 STRESS PERIOD     3
      4 TOTAL ITERATIONS
     1 CALLS TO GCG PACKAGE FOR TRANSPORT TIME STEP  1244 IN FLOW TIME STEP     1 STRESS PERIOD     3
      4 TOTAL ITERATIONS
     1 CALLS TO GCG PACKAGE FOR TRANSPORT TIME STEP  1245 IN FLOW TIME STEP     1 STRESS PERIOD     3
      4 TOTAL ITERATIONS
     1 CALLS TO GCG PACKAGE FOR TRANSPORT TIME STEP  1246 IN FLOW TIME STEP     1 STRESS PERIOD     3
      4 TOTAL ITERATIONS
     1 CALLS TO GCG PACKAGE FOR TRANSPORT TIME STEP  1247 IN FLOW TIME STEP     1 STRESS PERIOD     3
      4 TOTAL ITERATIONS
     1 CALLS TO GCG PACKAGE FOR TRANSPORT TIME STEP  1248 IN FLOW TIME STEP     1 STRESS PERIOD     3
      4 TOTAL ITERATIONS
     1 CALLS TO GCG PACKAGE FOR TRANSPORT TIME STEP  1249 IN FLOW TIME STEP     1 STRESS PERIOD     3
      4 TOTAL ITERATIONS
     1 CALLS TO GCG PACKAGE FOR TRANSPORT TIME STEP  1250 IN FLOW TIME STEP     1 STRESS PERIOD     3
      4 TOTAL ITERATIONS
     1 CALLS TO GCG PACKAGE FOR TRANSPORT TIME STEP  1251 IN FLOW TIME STEP     1 STRESS PERIOD     3
      4 TOTAL ITERATIONS
     1 CALLS TO GCG PACKAGE FOR TRANSPORT TIME STEP  1252 IN FLOW TIME STEP     1 STRESS PERIOD     3
      4 TOTAL ITERATIONS
     1 CALLS TO GCG PACKAGE FOR TRANSPORT TIME STEP  1253 IN FLOW TIME STEP     1 STRESS PERIOD     3
      4 TOTAL ITERATIONS
     1 CALLS TO GCG PACKAGE FOR TRANSPORT TIME STEP  1254 IN FLOW TIME STEP     1 STRESS PERIOD     3
      4 TOTAL ITERATIONS
     1 CALLS TO GCG PACKAGE FOR TRANSPORT TIME STEP  1255 IN FLOW TIME STEP     1 STRESS PERIOD     3
      4 TOTAL ITERATIONS
     1 CALLS TO GCG PACKAGE FOR TRANSPORT TIME STEP  1256 IN FLOW TIME STEP     1 STRESS PERIOD     3
      4 TOTAL ITERATIONS
     1 CALLS TO GCG PACKAGE FOR TRANSPORT TIME STEP  1257 IN FLOW TIME STEP     1 STRESS PERIOD     3
      4 TOTAL ITERATIONS
     1 CALLS TO GCG PACKAGE FOR TRANSPORT TIME STEP  1258 IN FLOW TIME STEP     1 STRESS PERIOD     3
      4 TOTAL ITERATIONS
     1 CALLS TO GCG PACKAGE FOR TRANSPORT TIME STEP  1259 IN FLOW TIME STEP     1 STRESS PERIOD     3
      4 TOTAL ITERATIONS
     1 CALLS TO GCG PACKAGE FOR TRANSPORT TIME STEP  1260 IN FLOW TIME STEP     1 STRESS PERIOD     3
      4 TOTAL ITERATIONS
     1 CALLS TO GCG PACKAGE FOR TRANSPORT TIME STEP  1261 IN FLOW TIME STEP     1 STRESS PERIOD     3
      4 TOTAL ITERATIONS
     1 CALLS TO GCG PACKAGE FOR TRANSPORT TIME STEP  1262 IN FLOW TIME STEP     1 STRESS PERIOD     3
      4 TOTAL ITERATIONS
     1 CALLS TO GCG PACKAGE FOR TRANSPORT TIME STEP  1263 IN FLOW TIME STEP     1 STRESS PERIOD     3
      4 TOTAL ITERATIONS
     1 CALLS TO GCG PACKAGE FOR TRANSPORT TIME STEP  1264 IN FLOW TIME STEP     1 STRESS PERIOD     3
      4 TOTAL ITERATIONS
     1 CALLS TO GCG PACKAGE FOR TRANSPORT TIME STEP  1265 IN FLOW TIME STEP     1 STRESS PERIOD     3
      4 TOTAL ITERATIONS
     1 CALLS TO GCG PACKAGE FOR TRANSPORT TIME STEP  1266 IN FLOW TIME STEP     1 STRESS PERIOD     3
      4 TOTAL ITERATIONS
     1 CALLS TO GCG PACKAGE FOR TRANSPORT TIME STEP  1267 IN FLOW TIME STEP     1 STRESS PERIOD     3
      4 TOTAL ITERATIONS
     1 CALLS TO GCG PACKAGE FOR TRANSPORT TIME STEP  1268 IN FLOW TIME STEP     1 STRESS PERIOD     3
      4 TOTAL ITERATIONS
     1 CALLS TO GCG PACKAGE FOR TRANSPORT TIME STEP  1269 IN FLOW TIME STEP     1 STRESS PERIOD     3
      4 TOTAL ITERATIONS
     1 CALLS TO GCG PACKAGE FOR TRANSPORT TIME STEP  1270 IN FLOW TIME STEP     1 STRESS PERIOD     3
      4 TOTAL ITERATIONS
     1 CALLS TO GCG PACKAGE FOR TRANSPORT TIME STEP  1271 IN FLOW TIME STEP     1 STRESS PERIOD     3
      4 TOTAL ITERATIONS
     1 CALLS TO GCG PACKAGE FOR TRANSPORT TIME STEP  1272 IN FLOW TIME STEP     1 STRESS PERIOD     3
      4 TOTAL ITERATIONS
     1 CALLS TO GCG PACKAGE FOR TRANSPORT TIME STEP  1273 IN FLOW TIME STEP     1 STRESS PERIOD     3
      4 TOTAL ITERATIONS
     1 CALLS TO GCG PACKAGE FOR TRANSPORT TIME STEP  1274 IN FLOW TIME STEP     1 STRESS PERIOD     3
      4 TOTAL ITERATIONS
     1 CALLS TO GCG PACKAGE FOR TRANSPORT TIME STEP  1275 IN FLOW TIME STEP     1 STRESS PERIOD     3
      4 TOTAL ITERATIONS
     1 CALLS TO GCG PACKAGE FOR TRANSPORT TIME STEP  1276 IN FLOW TIME STEP     1 STRESS PERIOD     3
      4 TOTAL ITERATIONS
     1 CALLS TO GCG PACKAGE FOR TRANSPORT TIME STEP  1277 IN FLOW TIME STEP     1 STRESS PERIOD     3
      4 TOTAL ITERATIONS
     1 CALLS TO GCG PACKAGE FOR TRANSPORT TIME STEP  1278 IN FLOW TIME STEP     1 STRESS PERIOD     3
      4 TOTAL ITERATIONS
     1 CALLS TO GCG PACKAGE FOR TRANSPORT TIME STEP  1279 IN FLOW TIME STEP     1 STRESS PERIOD     3
      4 TOTAL ITERATIONS
     1 CALLS TO GCG PACKAGE FOR TRANSPORT TIME STEP  1280 IN FLOW TIME STEP     1 STRESS PERIOD     3
      4 TOTAL ITERATIONS
     1 CALLS TO GCG PACKAGE FOR TRANSPORT TIME STEP  1281 IN FLOW TIME STEP     1 STRESS PERIOD     3
      4 TOTAL ITERATIONS
     1 CALLS TO GCG PACKAGE FOR TRANSPORT TIME STEP  1282 IN FLOW TIME STEP     1 STRESS PERIOD     3
      4 TOTAL ITERATIONS
     1 CALLS TO GCG PACKAGE FOR TRANSPORT TIME STEP  1283 IN FLOW TIME STEP     1 STRESS PERIOD     3
      4 TOTAL ITERATIONS
     1 CALLS TO GCG PACKAGE FOR TRANSPORT TIME STEP  1284 IN FLOW TIME STEP     1 STRESS PERIOD     3
      4 TOTAL ITERATIONS
     1 CALLS TO GCG PACKAGE FOR TRANSPORT TIME STEP  1285 IN FLOW TIME STEP     1 STRESS PERIOD     3
      4 TOTAL ITERATIONS
     1 CALLS TO GCG PACKAGE FOR TRANSPORT TIME STEP  1286 IN FLOW TIME STEP     1 STRESS PERIOD     3
      4 TOTAL ITERATIONS
     1 CALLS TO GCG PACKAGE FOR TRANSPORT TIME STEP  1287 IN FLOW TIME STEP     1 STRESS PERIOD     3
      3 TOTAL ITERATIONS



 >>>>>>>>>>>>>>>>>>>>>>>>>>>>>>>>>>>>>>>>>>>>>>>>>>>>>>>FOR COMPONENT NO. 01<<<<<<<<<<<<<<<<<<<<<<<<<<<<<<<<<<<<<<<<<<<<<<<<<<<<<<<


                                            -------------------------------------------
                                                      TRANSPORT STEP NO. 1287
                                            -------------------------------------------

 TOTAL ELAPSED TIME SINCE BEGINNING OF SIMULATION =   54.94000    D   
 .....................................................................

                     CUMULATIVE MASS BUDGETS AT END OF TRANSPORT STEP 1287, TIME STEP    1, STRESS PERIOD    3
                     -----------------------------------------------------------------------------------------

                                                             IN                           OUT
                                                      ----------------             ----------------
                               CONSTANT CONCENTRATION:    0.000000                    0.000000    
                                        CONSTANT HEAD:    0.000000                  -0.2787952E-01
                                                WELLS:   0.3390577E-01                0.000000    
                               MASS STOR (FLOW MODEL):    0.000000                    0.000000    
                                MASS STORAGE (SOLUTE):   0.1936426E-04              -0.6045877E-02
                            ---------------------------------------------------------------------------
                                              [TOTAL]:   0.3392514E-01 KG           -0.3392540E-01 KG  

                                                          NET (IN - OUT):  -0.2570450E-06
                                                   DISCREPANCY (PERCENT):  -0.7576802E-03
     1 CALLS TO GCG PACKAGE FOR TRANSPORT TIME STEP  1288 IN FLOW TIME STEP     1 STRESS PERIOD     3
      4 TOTAL ITERATIONS
     1 CALLS TO GCG PACKAGE FOR TRANSPORT TIME STEP  1289 IN FLOW TIME STEP     1 STRESS PERIOD     3
      4 TOTAL ITERATIONS
     1 CALLS TO GCG PACKAGE FOR TRANSPORT TIME STEP  1290 IN FLOW TIME STEP     1 STRESS PERIOD     3
      4 TOTAL ITERATIONS
     1 CALLS TO GCG PACKAGE FOR TRANSPORT TIME STEP  1291 IN FLOW TIME STEP     1 STRESS PERIOD     3
      4 TOTAL ITERATIONS
     1 CALLS TO GCG PACKAGE FOR TRANSPORT TIME STEP  1292 IN FLOW TIME STEP     1 STRESS PERIOD     3
      4 TOTAL ITERATIONS
     1 CALLS TO GCG PACKAGE FOR TRANSPORT TIME STEP  1293 IN FLOW TIME STEP     1 STRESS PERIOD     3
      4 TOTAL ITERATIONS
     1 CALLS TO GCG PACKAGE FOR TRANSPORT TIME STEP  1294 IN FLOW TIME STEP     1 STRESS PERIOD     3
      4 TOTAL ITERATIONS
     1 CALLS TO GCG PACKAGE FOR TRANSPORT TIME STEP  1295 IN FLOW TIME STEP     1 STRESS PERIOD     3
      4 TOTAL ITERATIONS
     1 CALLS TO GCG PACKAGE FOR TRANSPORT TIME STEP  1296 IN FLOW TIME STEP     1 STRESS PERIOD     3
      4 TOTAL ITERATIONS
     1 CALLS TO GCG PACKAGE FOR TRANSPORT TIME STEP  1297 IN FLOW TIME STEP     1 STRESS PERIOD     3
      4 TOTAL ITERATIONS
     1 CALLS TO GCG PACKAGE FOR TRANSPORT TIME STEP  1298 IN FLOW TIME STEP     1 STRESS PERIOD     3
      4 TOTAL ITERATIONS
     1 CALLS TO GCG PACKAGE FOR TRANSPORT TIME STEP  1299 IN FLOW TIME STEP     1 STRESS PERIOD     3
      4 TOTAL ITERATIONS
     1 CALLS TO GCG PACKAGE FOR TRANSPORT TIME STEP  1300 IN FLOW TIME STEP     1 STRESS PERIOD     3
      4 TOTAL ITERATIONS
     1 CALLS TO GCG PACKAGE FOR TRANSPORT TIME STEP  1301 IN FLOW TIME STEP     1 STRESS PERIOD     3
      4 TOTAL ITERATIONS
     1 CALLS TO GCG PACKAGE FOR TRANSPORT TIME STEP  1302 IN FLOW TIME STEP     1 STRESS PERIOD     3
      4 TOTAL ITERATIONS
     1 CALLS TO GCG PACKAGE FOR TRANSPORT TIME STEP  1303 IN FLOW TIME STEP     1 STRESS PERIOD     3
      4 TOTAL ITERATIONS
     1 CALLS TO GCG PACKAGE FOR TRANSPORT TIME STEP  1304 IN FLOW TIME STEP     1 STRESS PERIOD     3
      4 TOTAL ITERATIONS
     1 CALLS TO GCG PACKAGE FOR TRANSPORT TIME STEP  1305 IN FLOW TIME STEP     1 STRESS PERIOD     3
      4 TOTAL ITERATIONS
     1 CALLS TO GCG PACKAGE FOR TRANSPORT TIME STEP  1306 IN FLOW TIME STEP     1 STRESS PERIOD     3
      4 TOTAL ITERATIONS
     1 CALLS TO GCG PACKAGE FOR TRANSPORT TIME STEP  1307 IN FLOW TIME STEP     1 STRESS PERIOD     3
      4 TOTAL ITERATIONS
     1 CALLS TO GCG PACKAGE FOR TRANSPORT TIME STEP  1308 IN FLOW TIME STEP     1 STRESS PERIOD     3
      4 TOTAL ITERATIONS
     1 CALLS TO GCG PACKAGE FOR TRANSPORT TIME STEP  1309 IN FLOW TIME STEP     1 STRESS PERIOD     3
      4 TOTAL ITERATIONS
     1 CALLS TO GCG PACKAGE FOR TRANSPORT TIME STEP  1310 IN FLOW TIME STEP     1 STRESS PERIOD     3
      4 TOTAL ITERATIONS
     1 CALLS TO GCG PACKAGE FOR TRANSPORT TIME STEP  1311 IN FLOW TIME STEP     1 STRESS PERIOD     3
      4 TOTAL ITERATIONS
     1 CALLS TO GCG PACKAGE FOR TRANSPORT TIME STEP  1312 IN FLOW TIME STEP     1 STRESS PERIOD     3
      4 TOTAL ITERATIONS
     1 CALLS TO GCG PACKAGE FOR TRANSPORT TIME STEP  1313 IN FLOW TIME STEP     1 STRESS PERIOD     3
      4 TOTAL ITERATIONS
     1 CALLS TO GCG PACKAGE FOR TRANSPORT TIME STEP  1314 IN FLOW TIME STEP     1 STRESS PERIOD     3
      4 TOTAL ITERATIONS
     1 CALLS TO GCG PACKAGE FOR TRANSPORT TIME STEP  1315 IN FLOW TIME STEP     1 STRESS PERIOD     3
      4 TOTAL ITERATIONS
     1 CALLS TO GCG PACKAGE FOR TRANSPORT TIME STEP  1316 IN FLOW TIME STEP     1 STRESS PERIOD     3
      4 TOTAL ITERATIONS
     1 CALLS TO GCG PACKAGE FOR TRANSPORT TIME STEP  1317 IN FLOW TIME STEP     1 STRESS PERIOD     3
      4 TOTAL ITERATIONS
     1 CALLS TO GCG PACKAGE FOR TRANSPORT TIME STEP  1318 IN FLOW TIME STEP     1 STRESS PERIOD     3
      4 TOTAL ITERATIONS
     1 CALLS TO GCG PACKAGE FOR TRANSPORT TIME STEP  1319 IN FLOW TIME STEP     1 STRESS PERIOD     3
      4 TOTAL ITERATIONS
     1 CALLS TO GCG PACKAGE FOR TRANSPORT TIME STEP  1320 IN FLOW TIME STEP     1 STRESS PERIOD     3
      4 TOTAL ITERATIONS
     1 CALLS TO GCG PACKAGE FOR TRANSPORT TIME STEP  1321 IN FLOW TIME STEP     1 STRESS PERIOD     3
      4 TOTAL ITERATIONS
     1 CALLS TO GCG PACKAGE FOR TRANSPORT TIME STEP  1322 IN FLOW TIME STEP     1 STRESS PERIOD     3
      4 TOTAL ITERATIONS
     1 CALLS TO GCG PACKAGE FOR TRANSPORT TIME STEP  1323 IN FLOW TIME STEP     1 STRESS PERIOD     3
      4 TOTAL ITERATIONS
     1 CALLS TO GCG PACKAGE FOR TRANSPORT TIME STEP  1324 IN FLOW TIME STEP     1 STRESS PERIOD     3
      4 TOTAL ITERATIONS
     1 CALLS TO GCG PACKAGE FOR TRANSPORT TIME STEP  1325 IN FLOW TIME STEP     1 STRESS PERIOD     3
      4 TOTAL ITERATIONS
     1 CALLS TO GCG PACKAGE FOR TRANSPORT TIME STEP  1326 IN FLOW TIME STEP     1 STRESS PERIOD     3
      4 TOTAL ITERATIONS
     1 CALLS TO GCG PACKAGE FOR TRANSPORT TIME STEP  1327 IN FLOW TIME STEP     1 STRESS PERIOD     3
      4 TOTAL ITERATIONS
     1 CALLS TO GCG PACKAGE FOR TRANSPORT TIME STEP  1328 IN FLOW TIME STEP     1 STRESS PERIOD     3
      4 TOTAL ITERATIONS
     1 CALLS TO GCG PACKAGE FOR TRANSPORT TIME STEP  1329 IN FLOW TIME STEP     1 STRESS PERIOD     3
      4 TOTAL ITERATIONS
     1 CALLS TO GCG PACKAGE FOR TRANSPORT TIME STEP  1330 IN FLOW TIME STEP     1 STRESS PERIOD     3
      4 TOTAL ITERATIONS
     1 CALLS TO GCG PACKAGE FOR TRANSPORT TIME STEP  1331 IN FLOW TIME STEP     1 STRESS PERIOD     3
      4 TOTAL ITERATIONS
     1 CALLS TO GCG PACKAGE FOR TRANSPORT TIME STEP  1332 IN FLOW TIME STEP     1 STRESS PERIOD     3
      4 TOTAL ITERATIONS
     1 CALLS TO GCG PACKAGE FOR TRANSPORT TIME STEP  1333 IN FLOW TIME STEP     1 STRESS PERIOD     3
      3 TOTAL ITERATIONS



 >>>>>>>>>>>>>>>>>>>>>>>>>>>>>>>>>>>>>>>>>>>>>>>>>>>>>>>FOR COMPONENT NO. 01<<<<<<<<<<<<<<<<<<<<<<<<<<<<<<<<<<<<<<<<<<<<<<<<<<<<<<<


                                            -------------------------------------------
                                                      TRANSPORT STEP NO. 1333
                                            -------------------------------------------

 TOTAL ELAPSED TIME SINCE BEGINNING OF SIMULATION =   55.76000    D   
 .....................................................................

                     CUMULATIVE MASS BUDGETS AT END OF TRANSPORT STEP 1333, TIME STEP    1, STRESS PERIOD    3
                     -----------------------------------------------------------------------------------------

                                                             IN                           OUT
                                                      ----------------             ----------------
                               CONSTANT CONCENTRATION:    0.000000                    0.000000    
                                        CONSTANT HEAD:    0.000000                  -0.2838331E-01
                                                WELLS:   0.3441175E-01                0.000000    
                               MASS STOR (FLOW MODEL):    0.000000                    0.000000    
                                MASS STORAGE (SOLUTE):   0.1938923E-04              -0.6048140E-02
                            ---------------------------------------------------------------------------
                                              [TOTAL]:   0.3443114E-01 KG           -0.3443145E-01 KG  

                                                          NET (IN - OUT):  -0.3129244E-06
                                                   DISCREPANCY (PERCENT):  -0.9088371E-03
     1 CALLS TO GCG PACKAGE FOR TRANSPORT TIME STEP  1334 IN FLOW TIME STEP     1 STRESS PERIOD     3
      4 TOTAL ITERATIONS
     1 CALLS TO GCG PACKAGE FOR TRANSPORT TIME STEP  1335 IN FLOW TIME STEP     1 STRESS PERIOD     3
      4 TOTAL ITERATIONS
     1 CALLS TO GCG PACKAGE FOR TRANSPORT TIME STEP  1336 IN FLOW TIME STEP     1 STRESS PERIOD     3
      4 TOTAL ITERATIONS
     1 CALLS TO GCG PACKAGE FOR TRANSPORT TIME STEP  1337 IN FLOW TIME STEP     1 STRESS PERIOD     3
      4 TOTAL ITERATIONS
     1 CALLS TO GCG PACKAGE FOR TRANSPORT TIME STEP  1338 IN FLOW TIME STEP     1 STRESS PERIOD     3
      4 TOTAL ITERATIONS
     1 CALLS TO GCG PACKAGE FOR TRANSPORT TIME STEP  1339 IN FLOW TIME STEP     1 STRESS PERIOD     3
      4 TOTAL ITERATIONS
     1 CALLS TO GCG PACKAGE FOR TRANSPORT TIME STEP  1340 IN FLOW TIME STEP     1 STRESS PERIOD     3
      4 TOTAL ITERATIONS
     1 CALLS TO GCG PACKAGE FOR TRANSPORT TIME STEP  1341 IN FLOW TIME STEP     1 STRESS PERIOD     3
      4 TOTAL ITERATIONS
     1 CALLS TO GCG PACKAGE FOR TRANSPORT TIME STEP  1342 IN FLOW TIME STEP     1 STRESS PERIOD     3
      4 TOTAL ITERATIONS
     1 CALLS TO GCG PACKAGE FOR TRANSPORT TIME STEP  1343 IN FLOW TIME STEP     1 STRESS PERIOD     3
      4 TOTAL ITERATIONS
     1 CALLS TO GCG PACKAGE FOR TRANSPORT TIME STEP  1344 IN FLOW TIME STEP     1 STRESS PERIOD     3
      4 TOTAL ITERATIONS
     1 CALLS TO GCG PACKAGE FOR TRANSPORT TIME STEP  1345 IN FLOW TIME STEP     1 STRESS PERIOD     3
      4 TOTAL ITERATIONS
     1 CALLS TO GCG PACKAGE FOR TRANSPORT TIME STEP  1346 IN FLOW TIME STEP     1 STRESS PERIOD     3
      4 TOTAL ITERATIONS
     1 CALLS TO GCG PACKAGE FOR TRANSPORT TIME STEP  1347 IN FLOW TIME STEP     1 STRESS PERIOD     3
      4 TOTAL ITERATIONS
     1 CALLS TO GCG PACKAGE FOR TRANSPORT TIME STEP  1348 IN FLOW TIME STEP     1 STRESS PERIOD     3
      4 TOTAL ITERATIONS
     1 CALLS TO GCG PACKAGE FOR TRANSPORT TIME STEP  1349 IN FLOW TIME STEP     1 STRESS PERIOD     3
      4 TOTAL ITERATIONS
     1 CALLS TO GCG PACKAGE FOR TRANSPORT TIME STEP  1350 IN FLOW TIME STEP     1 STRESS PERIOD     3
      4 TOTAL ITERATIONS
     1 CALLS TO GCG PACKAGE FOR TRANSPORT TIME STEP  1351 IN FLOW TIME STEP     1 STRESS PERIOD     3
      4 TOTAL ITERATIONS
     1 CALLS TO GCG PACKAGE FOR TRANSPORT TIME STEP  1352 IN FLOW TIME STEP     1 STRESS PERIOD     3
      4 TOTAL ITERATIONS
     1 CALLS TO GCG PACKAGE FOR TRANSPORT TIME STEP  1353 IN FLOW TIME STEP     1 STRESS PERIOD     3
      4 TOTAL ITERATIONS
     1 CALLS TO GCG PACKAGE FOR TRANSPORT TIME STEP  1354 IN FLOW TIME STEP     1 STRESS PERIOD     3
      4 TOTAL ITERATIONS
     1 CALLS TO GCG PACKAGE FOR TRANSPORT TIME STEP  1355 IN FLOW TIME STEP     1 STRESS PERIOD     3
      4 TOTAL ITERATIONS
     1 CALLS TO GCG PACKAGE FOR TRANSPORT TIME STEP  1356 IN FLOW TIME STEP     1 STRESS PERIOD     3
      4 TOTAL ITERATIONS
     1 CALLS TO GCG PACKAGE FOR TRANSPORT TIME STEP  1357 IN FLOW TIME STEP     1 STRESS PERIOD     3
      4 TOTAL ITERATIONS
     1 CALLS TO GCG PACKAGE FOR TRANSPORT TIME STEP  1358 IN FLOW TIME STEP     1 STRESS PERIOD     3
      4 TOTAL ITERATIONS
     1 CALLS TO GCG PACKAGE FOR TRANSPORT TIME STEP  1359 IN FLOW TIME STEP     1 STRESS PERIOD     3
      4 TOTAL ITERATIONS
     1 CALLS TO GCG PACKAGE FOR TRANSPORT TIME STEP  1360 IN FLOW TIME STEP     1 STRESS PERIOD     3
      4 TOTAL ITERATIONS
     1 CALLS TO GCG PACKAGE FOR TRANSPORT TIME STEP  1361 IN FLOW TIME STEP     1 STRESS PERIOD     3
      4 TOTAL ITERATIONS
     1 CALLS TO GCG PACKAGE FOR TRANSPORT TIME STEP  1362 IN FLOW TIME STEP     1 STRESS PERIOD     3
      4 TOTAL ITERATIONS
     1 CALLS TO GCG PACKAGE FOR TRANSPORT TIME STEP  1363 IN FLOW TIME STEP     1 STRESS PERIOD     3
      4 TOTAL ITERATIONS
     1 CALLS TO GCG PACKAGE FOR TRANSPORT TIME STEP  1364 IN FLOW TIME STEP     1 STRESS PERIOD     3
      4 TOTAL ITERATIONS
     1 CALLS TO GCG PACKAGE FOR TRANSPORT TIME STEP  1365 IN FLOW TIME STEP     1 STRESS PERIOD     3
      4 TOTAL ITERATIONS
     1 CALLS TO GCG PACKAGE FOR TRANSPORT TIME STEP  1366 IN FLOW TIME STEP     1 STRESS PERIOD     3
      4 TOTAL ITERATIONS
     1 CALLS TO GCG PACKAGE FOR TRANSPORT TIME STEP  1367 IN FLOW TIME STEP     1 STRESS PERIOD     3
      4 TOTAL ITERATIONS
     1 CALLS TO GCG PACKAGE FOR TRANSPORT TIME STEP  1368 IN FLOW TIME STEP     1 STRESS PERIOD     3
      4 TOTAL ITERATIONS
     1 CALLS TO GCG PACKAGE FOR TRANSPORT TIME STEP  1369 IN FLOW TIME STEP     1 STRESS PERIOD     3
      4 TOTAL ITERATIONS
     1 CALLS TO GCG PACKAGE FOR TRANSPORT TIME STEP  1370 IN FLOW TIME STEP     1 STRESS PERIOD     3
      4 TOTAL ITERATIONS
     1 CALLS TO GCG PACKAGE FOR TRANSPORT TIME STEP  1371 IN FLOW TIME STEP     1 STRESS PERIOD     3
      4 TOTAL ITERATIONS
     1 CALLS TO GCG PACKAGE FOR TRANSPORT TIME STEP  1372 IN FLOW TIME STEP     1 STRESS PERIOD     3
      4 TOTAL ITERATIONS
     1 CALLS TO GCG PACKAGE FOR TRANSPORT TIME STEP  1373 IN FLOW TIME STEP     1 STRESS PERIOD     3
      4 TOTAL ITERATIONS
     1 CALLS TO GCG PACKAGE FOR TRANSPORT TIME STEP  1374 IN FLOW TIME STEP     1 STRESS PERIOD     3
      4 TOTAL ITERATIONS
     1 CALLS TO GCG PACKAGE FOR TRANSPORT TIME STEP  1375 IN FLOW TIME STEP     1 STRESS PERIOD     3
      4 TOTAL ITERATIONS
     1 CALLS TO GCG PACKAGE FOR TRANSPORT TIME STEP  1376 IN FLOW TIME STEP     1 STRESS PERIOD     3
      4 TOTAL ITERATIONS
     1 CALLS TO GCG PACKAGE FOR TRANSPORT TIME STEP  1377 IN FLOW TIME STEP     1 STRESS PERIOD     3
      4 TOTAL ITERATIONS
     1 CALLS TO GCG PACKAGE FOR TRANSPORT TIME STEP  1378 IN FLOW TIME STEP     1 STRESS PERIOD     3
      4 TOTAL ITERATIONS
     1 CALLS TO GCG PACKAGE FOR TRANSPORT TIME STEP  1379 IN FLOW TIME STEP     1 STRESS PERIOD     3
      3 TOTAL ITERATIONS



 >>>>>>>>>>>>>>>>>>>>>>>>>>>>>>>>>>>>>>>>>>>>>>>>>>>>>>>FOR COMPONENT NO. 01<<<<<<<<<<<<<<<<<<<<<<<<<<<<<<<<<<<<<<<<<<<<<<<<<<<<<<<


                                            -------------------------------------------
                                                      TRANSPORT STEP NO. 1379
                                            -------------------------------------------

 TOTAL ELAPSED TIME SINCE BEGINNING OF SIMULATION =   56.58000    D   
 .....................................................................

                     CUMULATIVE MASS BUDGETS AT END OF TRANSPORT STEP 1379, TIME STEP    1, STRESS PERIOD    3
                     -----------------------------------------------------------------------------------------

                                                             IN                           OUT
                                                      ----------------             ----------------
                               CONSTANT CONCENTRATION:    0.000000                    0.000000    
                                        CONSTANT HEAD:    0.000000                  -0.2888724E-01
                                                WELLS:   0.3491773E-01                0.000000    
                               MASS STOR (FLOW MODEL):    0.000000                    0.000000    
                                MASS STORAGE (SOLUTE):   0.1941435E-04              -0.6050263E-02
                            ---------------------------------------------------------------------------
                                              [TOTAL]:   0.3493714E-01 KG           -0.3493750E-01 KG  

                                                          NET (IN - OUT):  -0.3613532E-06
                                                   DISCREPANCY (PERCENT):  -0.1034290E-02
     1 CALLS TO GCG PACKAGE FOR TRANSPORT TIME STEP  1380 IN FLOW TIME STEP     1 STRESS PERIOD     3
      4 TOTAL ITERATIONS
     1 CALLS TO GCG PACKAGE FOR TRANSPORT TIME STEP  1381 IN FLOW TIME STEP     1 STRESS PERIOD     3
      4 TOTAL ITERATIONS
     1 CALLS TO GCG PACKAGE FOR TRANSPORT TIME STEP  1382 IN FLOW TIME STEP     1 STRESS PERIOD     3
      4 TOTAL ITERATIONS
     1 CALLS TO GCG PACKAGE FOR TRANSPORT TIME STEP  1383 IN FLOW TIME STEP     1 STRESS PERIOD     3
      4 TOTAL ITERATIONS
     1 CALLS TO GCG PACKAGE FOR TRANSPORT TIME STEP  1384 IN FLOW TIME STEP     1 STRESS PERIOD     3
      4 TOTAL ITERATIONS
     1 CALLS TO GCG PACKAGE FOR TRANSPORT TIME STEP  1385 IN FLOW TIME STEP     1 STRESS PERIOD     3
      4 TOTAL ITERATIONS
     1 CALLS TO GCG PACKAGE FOR TRANSPORT TIME STEP  1386 IN FLOW TIME STEP     1 STRESS PERIOD     3
      4 TOTAL ITERATIONS
     1 CALLS TO GCG PACKAGE FOR TRANSPORT TIME STEP  1387 IN FLOW TIME STEP     1 STRESS PERIOD     3
      4 TOTAL ITERATIONS
     1 CALLS TO GCG PACKAGE FOR TRANSPORT TIME STEP  1388 IN FLOW TIME STEP     1 STRESS PERIOD     3
      4 TOTAL ITERATIONS
     1 CALLS TO GCG PACKAGE FOR TRANSPORT TIME STEP  1389 IN FLOW TIME STEP     1 STRESS PERIOD     3
      4 TOTAL ITERATIONS
     1 CALLS TO GCG PACKAGE FOR TRANSPORT TIME STEP  1390 IN FLOW TIME STEP     1 STRESS PERIOD     3
      4 TOTAL ITERATIONS
     1 CALLS TO GCG PACKAGE FOR TRANSPORT TIME STEP  1391 IN FLOW TIME STEP     1 STRESS PERIOD     3
      4 TOTAL ITERATIONS
     1 CALLS TO GCG PACKAGE FOR TRANSPORT TIME STEP  1392 IN FLOW TIME STEP     1 STRESS PERIOD     3
      4 TOTAL ITERATIONS
     1 CALLS TO GCG PACKAGE FOR TRANSPORT TIME STEP  1393 IN FLOW TIME STEP     1 STRESS PERIOD     3
      4 TOTAL ITERATIONS
     1 CALLS TO GCG PACKAGE FOR TRANSPORT TIME STEP  1394 IN FLOW TIME STEP     1 STRESS PERIOD     3
      4 TOTAL ITERATIONS
     1 CALLS TO GCG PACKAGE FOR TRANSPORT TIME STEP  1395 IN FLOW TIME STEP     1 STRESS PERIOD     3
      4 TOTAL ITERATIONS
     1 CALLS TO GCG PACKAGE FOR TRANSPORT TIME STEP  1396 IN FLOW TIME STEP     1 STRESS PERIOD     3
      4 TOTAL ITERATIONS
     1 CALLS TO GCG PACKAGE FOR TRANSPORT TIME STEP  1397 IN FLOW TIME STEP     1 STRESS PERIOD     3
      4 TOTAL ITERATIONS
     1 CALLS TO GCG PACKAGE FOR TRANSPORT TIME STEP  1398 IN FLOW TIME STEP     1 STRESS PERIOD     3
      4 TOTAL ITERATIONS
     1 CALLS TO GCG PACKAGE FOR TRANSPORT TIME STEP  1399 IN FLOW TIME STEP     1 STRESS PERIOD     3
      4 TOTAL ITERATIONS
     1 CALLS TO GCG PACKAGE FOR TRANSPORT TIME STEP  1400 IN FLOW TIME STEP     1 STRESS PERIOD     3
      4 TOTAL ITERATIONS
     1 CALLS TO GCG PACKAGE FOR TRANSPORT TIME STEP  1401 IN FLOW TIME STEP     1 STRESS PERIOD     3
      4 TOTAL ITERATIONS
     1 CALLS TO GCG PACKAGE FOR TRANSPORT TIME STEP  1402 IN FLOW TIME STEP     1 STRESS PERIOD     3
      4 TOTAL ITERATIONS
     1 CALLS TO GCG PACKAGE FOR TRANSPORT TIME STEP  1403 IN FLOW TIME STEP     1 STRESS PERIOD     3
      4 TOTAL ITERATIONS
     1 CALLS TO GCG PACKAGE FOR TRANSPORT TIME STEP  1404 IN FLOW TIME STEP     1 STRESS PERIOD     3
      4 TOTAL ITERATIONS
     1 CALLS TO GCG PACKAGE FOR TRANSPORT TIME STEP  1405 IN FLOW TIME STEP     1 STRESS PERIOD     3
      4 TOTAL ITERATIONS
     1 CALLS TO GCG PACKAGE FOR TRANSPORT TIME STEP  1406 IN FLOW TIME STEP     1 STRESS PERIOD     3
      4 TOTAL ITERATIONS
     1 CALLS TO GCG PACKAGE FOR TRANSPORT TIME STEP  1407 IN FLOW TIME STEP     1 STRESS PERIOD     3
      4 TOTAL ITERATIONS
     1 CALLS TO GCG PACKAGE FOR TRANSPORT TIME STEP  1408 IN FLOW TIME STEP     1 STRESS PERIOD     3
      4 TOTAL ITERATIONS
     1 CALLS TO GCG PACKAGE FOR TRANSPORT TIME STEP  1409 IN FLOW TIME STEP     1 STRESS PERIOD     3
      4 TOTAL ITERATIONS
     1 CALLS TO GCG PACKAGE FOR TRANSPORT TIME STEP  1410 IN FLOW TIME STEP     1 STRESS PERIOD     3
      4 TOTAL ITERATIONS
     1 CALLS TO GCG PACKAGE FOR TRANSPORT TIME STEP  1411 IN FLOW TIME STEP     1 STRESS PERIOD     3
      4 TOTAL ITERATIONS
     1 CALLS TO GCG PACKAGE FOR TRANSPORT TIME STEP  1412 IN FLOW TIME STEP     1 STRESS PERIOD     3
      4 TOTAL ITERATIONS
     1 CALLS TO GCG PACKAGE FOR TRANSPORT TIME STEP  1413 IN FLOW TIME STEP     1 STRESS PERIOD     3
      4 TOTAL ITERATIONS
     1 CALLS TO GCG PACKAGE FOR TRANSPORT TIME STEP  1414 IN FLOW TIME STEP     1 STRESS PERIOD     3
      4 TOTAL ITERATIONS
     1 CALLS TO GCG PACKAGE FOR TRANSPORT TIME STEP  1415 IN FLOW TIME STEP     1 STRESS PERIOD     3
      4 TOTAL ITERATIONS
     1 CALLS TO GCG PACKAGE FOR TRANSPORT TIME STEP  1416 IN FLOW TIME STEP     1 STRESS PERIOD     3
      4 TOTAL ITERATIONS
     1 CALLS TO GCG PACKAGE FOR TRANSPORT TIME STEP  1417 IN FLOW TIME STEP     1 STRESS PERIOD     3
      4 TOTAL ITERATIONS
     1 CALLS TO GCG PACKAGE FOR TRANSPORT TIME STEP  1418 IN FLOW TIME STEP     1 STRESS PERIOD     3
      4 TOTAL ITERATIONS
     1 CALLS TO GCG PACKAGE FOR TRANSPORT TIME STEP  1419 IN FLOW TIME STEP     1 STRESS PERIOD     3
      4 TOTAL ITERATIONS
     1 CALLS TO GCG PACKAGE FOR TRANSPORT TIME STEP  1420 IN FLOW TIME STEP     1 STRESS PERIOD     3
      4 TOTAL ITERATIONS
     1 CALLS TO GCG PACKAGE FOR TRANSPORT TIME STEP  1421 IN FLOW TIME STEP     1 STRESS PERIOD     3
      4 TOTAL ITERATIONS
     1 CALLS TO GCG PACKAGE FOR TRANSPORT TIME STEP  1422 IN FLOW TIME STEP     1 STRESS PERIOD     3
      4 TOTAL ITERATIONS
     1 CALLS TO GCG PACKAGE FOR TRANSPORT TIME STEP  1423 IN FLOW TIME STEP     1 STRESS PERIOD     3
      4 TOTAL ITERATIONS
     1 CALLS TO GCG PACKAGE FOR TRANSPORT TIME STEP  1424 IN FLOW TIME STEP     1 STRESS PERIOD     3
      4 TOTAL ITERATIONS
     1 CALLS TO GCG PACKAGE FOR TRANSPORT TIME STEP  1425 IN FLOW TIME STEP     1 STRESS PERIOD     3
      3 TOTAL ITERATIONS



 >>>>>>>>>>>>>>>>>>>>>>>>>>>>>>>>>>>>>>>>>>>>>>>>>>>>>>>FOR COMPONENT NO. 01<<<<<<<<<<<<<<<<<<<<<<<<<<<<<<<<<<<<<<<<<<<<<<<<<<<<<<<


                                            -------------------------------------------
                                                      TRANSPORT STEP NO. 1425
                                            -------------------------------------------

 TOTAL ELAPSED TIME SINCE BEGINNING OF SIMULATION =   57.40000    D   
 .....................................................................

                     CUMULATIVE MASS BUDGETS AT END OF TRANSPORT STEP 1425, TIME STEP    1, STRESS PERIOD    3
                     -----------------------------------------------------------------------------------------

                                                             IN                           OUT
                                                      ----------------             ----------------
                               CONSTANT CONCENTRATION:    0.000000                    0.000000    
                                        CONSTANT HEAD:    0.000000                  -0.2939131E-01
                                                WELLS:   0.3542371E-01                0.000000    
                               MASS STOR (FLOW MODEL):    0.000000                    0.000000    
                                MASS STORAGE (SOLUTE):   0.1943958E-04              -0.6052257E-02
                            ---------------------------------------------------------------------------
                                              [TOTAL]:   0.3544315E-01 KG           -0.3544357E-01 KG  

                                                          NET (IN - OUT):  -0.4209578E-06
                                                   DISCREPANCY (PERCENT):  -0.1187692E-02
     1 CALLS TO GCG PACKAGE FOR TRANSPORT TIME STEP  1426 IN FLOW TIME STEP     1 STRESS PERIOD     3
      4 TOTAL ITERATIONS
     1 CALLS TO GCG PACKAGE FOR TRANSPORT TIME STEP  1427 IN FLOW TIME STEP     1 STRESS PERIOD     3
      4 TOTAL ITERATIONS
     1 CALLS TO GCG PACKAGE FOR TRANSPORT TIME STEP  1428 IN FLOW TIME STEP     1 STRESS PERIOD     3
      4 TOTAL ITERATIONS
     1 CALLS TO GCG PACKAGE FOR TRANSPORT TIME STEP  1429 IN FLOW TIME STEP     1 STRESS PERIOD     3
      4 TOTAL ITERATIONS
     1 CALLS TO GCG PACKAGE FOR TRANSPORT TIME STEP  1430 IN FLOW TIME STEP     1 STRESS PERIOD     3
      4 TOTAL ITERATIONS
     1 CALLS TO GCG PACKAGE FOR TRANSPORT TIME STEP  1431 IN FLOW TIME STEP     1 STRESS PERIOD     3
      4 TOTAL ITERATIONS
     1 CALLS TO GCG PACKAGE FOR TRANSPORT TIME STEP  1432 IN FLOW TIME STEP     1 STRESS PERIOD     3
      4 TOTAL ITERATIONS
     1 CALLS TO GCG PACKAGE FOR TRANSPORT TIME STEP  1433 IN FLOW TIME STEP     1 STRESS PERIOD     3
      4 TOTAL ITERATIONS
     1 CALLS TO GCG PACKAGE FOR TRANSPORT TIME STEP  1434 IN FLOW TIME STEP     1 STRESS PERIOD     3
      4 TOTAL ITERATIONS
     1 CALLS TO GCG PACKAGE FOR TRANSPORT TIME STEP  1435 IN FLOW TIME STEP     1 STRESS PERIOD     3
      4 TOTAL ITERATIONS
     1 CALLS TO GCG PACKAGE FOR TRANSPORT TIME STEP  1436 IN FLOW TIME STEP     1 STRESS PERIOD     3
      4 TOTAL ITERATIONS
     1 CALLS TO GCG PACKAGE FOR TRANSPORT TIME STEP  1437 IN FLOW TIME STEP     1 STRESS PERIOD     3
      4 TOTAL ITERATIONS
     1 CALLS TO GCG PACKAGE FOR TRANSPORT TIME STEP  1438 IN FLOW TIME STEP     1 STRESS PERIOD     3
      4 TOTAL ITERATIONS
     1 CALLS TO GCG PACKAGE FOR TRANSPORT TIME STEP  1439 IN FLOW TIME STEP     1 STRESS PERIOD     3
      4 TOTAL ITERATIONS
     1 CALLS TO GCG PACKAGE FOR TRANSPORT TIME STEP  1440 IN FLOW TIME STEP     1 STRESS PERIOD     3
      4 TOTAL ITERATIONS
     1 CALLS TO GCG PACKAGE FOR TRANSPORT TIME STEP  1441 IN FLOW TIME STEP     1 STRESS PERIOD     3
      4 TOTAL ITERATIONS
     1 CALLS TO GCG PACKAGE FOR TRANSPORT TIME STEP  1442 IN FLOW TIME STEP     1 STRESS PERIOD     3
      4 TOTAL ITERATIONS
     1 CALLS TO GCG PACKAGE FOR TRANSPORT TIME STEP  1443 IN FLOW TIME STEP     1 STRESS PERIOD     3
      4 TOTAL ITERATIONS
     1 CALLS TO GCG PACKAGE FOR TRANSPORT TIME STEP  1444 IN FLOW TIME STEP     1 STRESS PERIOD     3
      4 TOTAL ITERATIONS
     1 CALLS TO GCG PACKAGE FOR TRANSPORT TIME STEP  1445 IN FLOW TIME STEP     1 STRESS PERIOD     3
      4 TOTAL ITERATIONS
     1 CALLS TO GCG PACKAGE FOR TRANSPORT TIME STEP  1446 IN FLOW TIME STEP     1 STRESS PERIOD     3
      4 TOTAL ITERATIONS
     1 CALLS TO GCG PACKAGE FOR TRANSPORT TIME STEP  1447 IN FLOW TIME STEP     1 STRESS PERIOD     3
      4 TOTAL ITERATIONS
     1 CALLS TO GCG PACKAGE FOR TRANSPORT TIME STEP  1448 IN FLOW TIME STEP     1 STRESS PERIOD     3
      4 TOTAL ITERATIONS
     1 CALLS TO GCG PACKAGE FOR TRANSPORT TIME STEP  1449 IN FLOW TIME STEP     1 STRESS PERIOD     3
      4 TOTAL ITERATIONS
     1 CALLS TO GCG PACKAGE FOR TRANSPORT TIME STEP  1450 IN FLOW TIME STEP     1 STRESS PERIOD     3
      4 TOTAL ITERATIONS
     1 CALLS TO GCG PACKAGE FOR TRANSPORT TIME STEP  1451 IN FLOW TIME STEP     1 STRESS PERIOD     3
      4 TOTAL ITERATIONS
     1 CALLS TO GCG PACKAGE FOR TRANSPORT TIME STEP  1452 IN FLOW TIME STEP     1 STRESS PERIOD     3
      4 TOTAL ITERATIONS
     1 CALLS TO GCG PACKAGE FOR TRANSPORT TIME STEP  1453 IN FLOW TIME STEP     1 STRESS PERIOD     3
      4 TOTAL ITERATIONS
     1 CALLS TO GCG PACKAGE FOR TRANSPORT TIME STEP  1454 IN FLOW TIME STEP     1 STRESS PERIOD     3
      4 TOTAL ITERATIONS
     1 CALLS TO GCG PACKAGE FOR TRANSPORT TIME STEP  1455 IN FLOW TIME STEP     1 STRESS PERIOD     3
      4 TOTAL ITERATIONS
     1 CALLS TO GCG PACKAGE FOR TRANSPORT TIME STEP  1456 IN FLOW TIME STEP     1 STRESS PERIOD     3
      4 TOTAL ITERATIONS
     1 CALLS TO GCG PACKAGE FOR TRANSPORT TIME STEP  1457 IN FLOW TIME STEP     1 STRESS PERIOD     3
      4 TOTAL ITERATIONS
     1 CALLS TO GCG PACKAGE FOR TRANSPORT TIME STEP  1458 IN FLOW TIME STEP     1 STRESS PERIOD     3
      4 TOTAL ITERATIONS
     1 CALLS TO GCG PACKAGE FOR TRANSPORT TIME STEP  1459 IN FLOW TIME STEP     1 STRESS PERIOD     3
      4 TOTAL ITERATIONS
     1 CALLS TO GCG PACKAGE FOR TRANSPORT TIME STEP  1460 IN FLOW TIME STEP     1 STRESS PERIOD     3
      4 TOTAL ITERATIONS
     1 CALLS TO GCG PACKAGE FOR TRANSPORT TIME STEP  1461 IN FLOW TIME STEP     1 STRESS PERIOD     3
      4 TOTAL ITERATIONS
     1 CALLS TO GCG PACKAGE FOR TRANSPORT TIME STEP  1462 IN FLOW TIME STEP     1 STRESS PERIOD     3
      4 TOTAL ITERATIONS
     1 CALLS TO GCG PACKAGE FOR TRANSPORT TIME STEP  1463 IN FLOW TIME STEP     1 STRESS PERIOD     3
      4 TOTAL ITERATIONS
     1 CALLS TO GCG PACKAGE FOR TRANSPORT TIME STEP  1464 IN FLOW TIME STEP     1 STRESS PERIOD     3
      4 TOTAL ITERATIONS
     1 CALLS TO GCG PACKAGE FOR TRANSPORT TIME STEP  1465 IN FLOW TIME STEP     1 STRESS PERIOD     3
      4 TOTAL ITERATIONS
     1 CALLS TO GCG PACKAGE FOR TRANSPORT TIME STEP  1466 IN FLOW TIME STEP     1 STRESS PERIOD     3
      4 TOTAL ITERATIONS
     1 CALLS TO GCG PACKAGE FOR TRANSPORT TIME STEP  1467 IN FLOW TIME STEP     1 STRESS PERIOD     3
      4 TOTAL ITERATIONS
     1 CALLS TO GCG PACKAGE FOR TRANSPORT TIME STEP  1468 IN FLOW TIME STEP     1 STRESS PERIOD     3
      4 TOTAL ITERATIONS
     1 CALLS TO GCG PACKAGE FOR TRANSPORT TIME STEP  1469 IN FLOW TIME STEP     1 STRESS PERIOD     3
      4 TOTAL ITERATIONS
     1 CALLS TO GCG PACKAGE FOR TRANSPORT TIME STEP  1470 IN FLOW TIME STEP     1 STRESS PERIOD     3
      4 TOTAL ITERATIONS
     1 CALLS TO GCG PACKAGE FOR TRANSPORT TIME STEP  1471 IN FLOW TIME STEP     1 STRESS PERIOD     3
      3 TOTAL ITERATIONS



 >>>>>>>>>>>>>>>>>>>>>>>>>>>>>>>>>>>>>>>>>>>>>>>>>>>>>>>FOR COMPONENT NO. 01<<<<<<<<<<<<<<<<<<<<<<<<<<<<<<<<<<<<<<<<<<<<<<<<<<<<<<<


                                            -------------------------------------------
                                                      TRANSPORT STEP NO. 1471
                                            -------------------------------------------

 TOTAL ELAPSED TIME SINCE BEGINNING OF SIMULATION =   58.22000    D   
 .....................................................................

                     CUMULATIVE MASS BUDGETS AT END OF TRANSPORT STEP 1471, TIME STEP    1, STRESS PERIOD    3
                     -----------------------------------------------------------------------------------------

                                                             IN                           OUT
                                                      ----------------             ----------------
                               CONSTANT CONCENTRATION:    0.000000                    0.000000    
                                        CONSTANT HEAD:    0.000000                  -0.2989549E-01
                                                WELLS:   0.3592968E-01                0.000000    
                               MASS STOR (FLOW MODEL):    0.000000                    0.000000    
                                MASS STORAGE (SOLUTE):   0.1946489E-04              -0.6054129E-02
                            ---------------------------------------------------------------------------
                                              [TOTAL]:   0.3594915E-01 KG           -0.3594962E-01 KG  

                                                          NET (IN - OUT):  -0.4693866E-06
                                                   DISCREPANCY (PERCENT):  -0.1305687E-02
     1 CALLS TO GCG PACKAGE FOR TRANSPORT TIME STEP  1472 IN FLOW TIME STEP     1 STRESS PERIOD     3
      4 TOTAL ITERATIONS
     1 CALLS TO GCG PACKAGE FOR TRANSPORT TIME STEP  1473 IN FLOW TIME STEP     1 STRESS PERIOD     3
      4 TOTAL ITERATIONS
     1 CALLS TO GCG PACKAGE FOR TRANSPORT TIME STEP  1474 IN FLOW TIME STEP     1 STRESS PERIOD     3
      4 TOTAL ITERATIONS
     1 CALLS TO GCG PACKAGE FOR TRANSPORT TIME STEP  1475 IN FLOW TIME STEP     1 STRESS PERIOD     3
      4 TOTAL ITERATIONS
     1 CALLS TO GCG PACKAGE FOR TRANSPORT TIME STEP  1476 IN FLOW TIME STEP     1 STRESS PERIOD     3
      4 TOTAL ITERATIONS
     1 CALLS TO GCG PACKAGE FOR TRANSPORT TIME STEP  1477 IN FLOW TIME STEP     1 STRESS PERIOD     3
      4 TOTAL ITERATIONS
     1 CALLS TO GCG PACKAGE FOR TRANSPORT TIME STEP  1478 IN FLOW TIME STEP     1 STRESS PERIOD     3
      4 TOTAL ITERATIONS
     1 CALLS TO GCG PACKAGE FOR TRANSPORT TIME STEP  1479 IN FLOW TIME STEP     1 STRESS PERIOD     3
      4 TOTAL ITERATIONS
     1 CALLS TO GCG PACKAGE FOR TRANSPORT TIME STEP  1480 IN FLOW TIME STEP     1 STRESS PERIOD     3
      4 TOTAL ITERATIONS
     1 CALLS TO GCG PACKAGE FOR TRANSPORT TIME STEP  1481 IN FLOW TIME STEP     1 STRESS PERIOD     3
      4 TOTAL ITERATIONS
     1 CALLS TO GCG PACKAGE FOR TRANSPORT TIME STEP  1482 IN FLOW TIME STEP     1 STRESS PERIOD     3
      4 TOTAL ITERATIONS
     1 CALLS TO GCG PACKAGE FOR TRANSPORT TIME STEP  1483 IN FLOW TIME STEP     1 STRESS PERIOD     3
      4 TOTAL ITERATIONS
     1 CALLS TO GCG PACKAGE FOR TRANSPORT TIME STEP  1484 IN FLOW TIME STEP     1 STRESS PERIOD     3
      4 TOTAL ITERATIONS
     1 CALLS TO GCG PACKAGE FOR TRANSPORT TIME STEP  1485 IN FLOW TIME STEP     1 STRESS PERIOD     3
      4 TOTAL ITERATIONS
     1 CALLS TO GCG PACKAGE FOR TRANSPORT TIME STEP  1486 IN FLOW TIME STEP     1 STRESS PERIOD     3
      4 TOTAL ITERATIONS
     1 CALLS TO GCG PACKAGE FOR TRANSPORT TIME STEP  1487 IN FLOW TIME STEP     1 STRESS PERIOD     3
      4 TOTAL ITERATIONS
     1 CALLS TO GCG PACKAGE FOR TRANSPORT TIME STEP  1488 IN FLOW TIME STEP     1 STRESS PERIOD     3
      4 TOTAL ITERATIONS
     1 CALLS TO GCG PACKAGE FOR TRANSPORT TIME STEP  1489 IN FLOW TIME STEP     1 STRESS PERIOD     3
      4 TOTAL ITERATIONS
     1 CALLS TO GCG PACKAGE FOR TRANSPORT TIME STEP  1490 IN FLOW TIME STEP     1 STRESS PERIOD     3
      4 TOTAL ITERATIONS
     1 CALLS TO GCG PACKAGE FOR TRANSPORT TIME STEP  1491 IN FLOW TIME STEP     1 STRESS PERIOD     3
      4 TOTAL ITERATIONS
     1 CALLS TO GCG PACKAGE FOR TRANSPORT TIME STEP  1492 IN FLOW TIME STEP     1 STRESS PERIOD     3
      4 TOTAL ITERATIONS
     1 CALLS TO GCG PACKAGE FOR TRANSPORT TIME STEP  1493 IN FLOW TIME STEP     1 STRESS PERIOD     3
      4 TOTAL ITERATIONS
     1 CALLS TO GCG PACKAGE FOR TRANSPORT TIME STEP  1494 IN FLOW TIME STEP     1 STRESS PERIOD     3
      4 TOTAL ITERATIONS
     1 CALLS TO GCG PACKAGE FOR TRANSPORT TIME STEP  1495 IN FLOW TIME STEP     1 STRESS PERIOD     3
      4 TOTAL ITERATIONS
     1 CALLS TO GCG PACKAGE FOR TRANSPORT TIME STEP  1496 IN FLOW TIME STEP     1 STRESS PERIOD     3
      4 TOTAL ITERATIONS
     1 CALLS TO GCG PACKAGE FOR TRANSPORT TIME STEP  1497 IN FLOW TIME STEP     1 STRESS PERIOD     3
      4 TOTAL ITERATIONS
     1 CALLS TO GCG PACKAGE FOR TRANSPORT TIME STEP  1498 IN FLOW TIME STEP     1 STRESS PERIOD     3
      4 TOTAL ITERATIONS
     1 CALLS TO GCG PACKAGE FOR TRANSPORT TIME STEP  1499 IN FLOW TIME STEP     1 STRESS PERIOD     3
      4 TOTAL ITERATIONS
     1 CALLS TO GCG PACKAGE FOR TRANSPORT TIME STEP  1500 IN FLOW TIME STEP     1 STRESS PERIOD     3
      4 TOTAL ITERATIONS
     1 CALLS TO GCG PACKAGE FOR TRANSPORT TIME STEP  1501 IN FLOW TIME STEP     1 STRESS PERIOD     3
      4 TOTAL ITERATIONS
     1 CALLS TO GCG PACKAGE FOR TRANSPORT TIME STEP  1502 IN FLOW TIME STEP     1 STRESS PERIOD     3
      4 TOTAL ITERATIONS
     1 CALLS TO GCG PACKAGE FOR TRANSPORT TIME STEP  1503 IN FLOW TIME STEP     1 STRESS PERIOD     3
      4 TOTAL ITERATIONS
     1 CALLS TO GCG PACKAGE FOR TRANSPORT TIME STEP  1504 IN FLOW TIME STEP     1 STRESS PERIOD     3
      4 TOTAL ITERATIONS
     1 CALLS TO GCG PACKAGE FOR TRANSPORT TIME STEP  1505 IN FLOW TIME STEP     1 STRESS PERIOD     3
      4 TOTAL ITERATIONS
     1 CALLS TO GCG PACKAGE FOR TRANSPORT TIME STEP  1506 IN FLOW TIME STEP     1 STRESS PERIOD     3
      4 TOTAL ITERATIONS
     1 CALLS TO GCG PACKAGE FOR TRANSPORT TIME STEP  1507 IN FLOW TIME STEP     1 STRESS PERIOD     3
      4 TOTAL ITERATIONS
     1 CALLS TO GCG PACKAGE FOR TRANSPORT TIME STEP  1508 IN FLOW TIME STEP     1 STRESS PERIOD     3
      4 TOTAL ITERATIONS
     1 CALLS TO GCG PACKAGE FOR TRANSPORT TIME STEP  1509 IN FLOW TIME STEP     1 STRESS PERIOD     3
      4 TOTAL ITERATIONS
     1 CALLS TO GCG PACKAGE FOR TRANSPORT TIME STEP  1510 IN FLOW TIME STEP     1 STRESS PERIOD     3
      4 TOTAL ITERATIONS
     1 CALLS TO GCG PACKAGE FOR TRANSPORT TIME STEP  1511 IN FLOW TIME STEP     1 STRESS PERIOD     3
      4 TOTAL ITERATIONS
     1 CALLS TO GCG PACKAGE FOR TRANSPORT TIME STEP  1512 IN FLOW TIME STEP     1 STRESS PERIOD     3
      4 TOTAL ITERATIONS
     1 CALLS TO GCG PACKAGE FOR TRANSPORT TIME STEP  1513 IN FLOW TIME STEP     1 STRESS PERIOD     3
      4 TOTAL ITERATIONS
     1 CALLS TO GCG PACKAGE FOR TRANSPORT TIME STEP  1514 IN FLOW TIME STEP     1 STRESS PERIOD     3
      4 TOTAL ITERATIONS
     1 CALLS TO GCG PACKAGE FOR TRANSPORT TIME STEP  1515 IN FLOW TIME STEP     1 STRESS PERIOD     3
      4 TOTAL ITERATIONS
     1 CALLS TO GCG PACKAGE FOR TRANSPORT TIME STEP  1516 IN FLOW TIME STEP     1 STRESS PERIOD     3
      4 TOTAL ITERATIONS
     1 CALLS TO GCG PACKAGE FOR TRANSPORT TIME STEP  1517 IN FLOW TIME STEP     1 STRESS PERIOD     3
      3 TOTAL ITERATIONS



 >>>>>>>>>>>>>>>>>>>>>>>>>>>>>>>>>>>>>>>>>>>>>>>>>>>>>>>FOR COMPONENT NO. 01<<<<<<<<<<<<<<<<<<<<<<<<<<<<<<<<<<<<<<<<<<<<<<<<<<<<<<<


                                            -------------------------------------------
                                                      TRANSPORT STEP NO. 1517
                                            -------------------------------------------

 TOTAL ELAPSED TIME SINCE BEGINNING OF SIMULATION =   59.04000    D   
 .....................................................................

                     CUMULATIVE MASS BUDGETS AT END OF TRANSPORT STEP 1517, TIME STEP    1, STRESS PERIOD    3
                     -----------------------------------------------------------------------------------------

                                                             IN                           OUT
                                                      ----------------             ----------------
                               CONSTANT CONCENTRATION:    0.000000                    0.000000    
                                        CONSTANT HEAD:    0.000000                  -0.3039979E-01
                                                WELLS:   0.3643566E-01                0.000000    
                               MASS STOR (FLOW MODEL):    0.000000                    0.000000    
                                MASS STORAGE (SOLUTE):   0.1949033E-04              -0.6055888E-02
                            ---------------------------------------------------------------------------
                                              [TOTAL]:   0.3645515E-01 KG           -0.3645568E-01 KG  

                                                          NET (IN - OUT):  -0.5252659E-06
                                                   DISCREPANCY (PERCENT):  -0.1440845E-02
     1 CALLS TO GCG PACKAGE FOR TRANSPORT TIME STEP  1518 IN FLOW TIME STEP     1 STRESS PERIOD     3
      4 TOTAL ITERATIONS
     1 CALLS TO GCG PACKAGE FOR TRANSPORT TIME STEP  1519 IN FLOW TIME STEP     1 STRESS PERIOD     3
      4 TOTAL ITERATIONS
     1 CALLS TO GCG PACKAGE FOR TRANSPORT TIME STEP  1520 IN FLOW TIME STEP     1 STRESS PERIOD     3
      4 TOTAL ITERATIONS
     1 CALLS TO GCG PACKAGE FOR TRANSPORT TIME STEP  1521 IN FLOW TIME STEP     1 STRESS PERIOD     3
      4 TOTAL ITERATIONS
     1 CALLS TO GCG PACKAGE FOR TRANSPORT TIME STEP  1522 IN FLOW TIME STEP     1 STRESS PERIOD     3
      4 TOTAL ITERATIONS
     1 CALLS TO GCG PACKAGE FOR TRANSPORT TIME STEP  1523 IN FLOW TIME STEP     1 STRESS PERIOD     3
      4 TOTAL ITERATIONS
     1 CALLS TO GCG PACKAGE FOR TRANSPORT TIME STEP  1524 IN FLOW TIME STEP     1 STRESS PERIOD     3
      4 TOTAL ITERATIONS
     1 CALLS TO GCG PACKAGE FOR TRANSPORT TIME STEP  1525 IN FLOW TIME STEP     1 STRESS PERIOD     3
      4 TOTAL ITERATIONS
     1 CALLS TO GCG PACKAGE FOR TRANSPORT TIME STEP  1526 IN FLOW TIME STEP     1 STRESS PERIOD     3
      4 TOTAL ITERATIONS
     1 CALLS TO GCG PACKAGE FOR TRANSPORT TIME STEP  1527 IN FLOW TIME STEP     1 STRESS PERIOD     3
      4 TOTAL ITERATIONS
     1 CALLS TO GCG PACKAGE FOR TRANSPORT TIME STEP  1528 IN FLOW TIME STEP     1 STRESS PERIOD     3
      4 TOTAL ITERATIONS
     1 CALLS TO GCG PACKAGE FOR TRANSPORT TIME STEP  1529 IN FLOW TIME STEP     1 STRESS PERIOD     3
      4 TOTAL ITERATIONS
     1 CALLS TO GCG PACKAGE FOR TRANSPORT TIME STEP  1530 IN FLOW TIME STEP     1 STRESS PERIOD     3
      4 TOTAL ITERATIONS
     1 CALLS TO GCG PACKAGE FOR TRANSPORT TIME STEP  1531 IN FLOW TIME STEP     1 STRESS PERIOD     3
      4 TOTAL ITERATIONS
     1 CALLS TO GCG PACKAGE FOR TRANSPORT TIME STEP  1532 IN FLOW TIME STEP     1 STRESS PERIOD     3
      4 TOTAL ITERATIONS
     1 CALLS TO GCG PACKAGE FOR TRANSPORT TIME STEP  1533 IN FLOW TIME STEP     1 STRESS PERIOD     3
      4 TOTAL ITERATIONS
     1 CALLS TO GCG PACKAGE FOR TRANSPORT TIME STEP  1534 IN FLOW TIME STEP     1 STRESS PERIOD     3
      4 TOTAL ITERATIONS
     1 CALLS TO GCG PACKAGE FOR TRANSPORT TIME STEP  1535 IN FLOW TIME STEP     1 STRESS PERIOD     3
      4 TOTAL ITERATIONS
     1 CALLS TO GCG PACKAGE FOR TRANSPORT TIME STEP  1536 IN FLOW TIME STEP     1 STRESS PERIOD     3
      4 TOTAL ITERATIONS
     1 CALLS TO GCG PACKAGE FOR TRANSPORT TIME STEP  1537 IN FLOW TIME STEP     1 STRESS PERIOD     3
      4 TOTAL ITERATIONS
     1 CALLS TO GCG PACKAGE FOR TRANSPORT TIME STEP  1538 IN FLOW TIME STEP     1 STRESS PERIOD     3
      4 TOTAL ITERATIONS
     1 CALLS TO GCG PACKAGE FOR TRANSPORT TIME STEP  1539 IN FLOW TIME STEP     1 STRESS PERIOD     3
      4 TOTAL ITERATIONS
     1 CALLS TO GCG PACKAGE FOR TRANSPORT TIME STEP  1540 IN FLOW TIME STEP     1 STRESS PERIOD     3
      4 TOTAL ITERATIONS
     1 CALLS TO GCG PACKAGE FOR TRANSPORT TIME STEP  1541 IN FLOW TIME STEP     1 STRESS PERIOD     3
      4 TOTAL ITERATIONS
     1 CALLS TO GCG PACKAGE FOR TRANSPORT TIME STEP  1542 IN FLOW TIME STEP     1 STRESS PERIOD     3
      4 TOTAL ITERATIONS
     1 CALLS TO GCG PACKAGE FOR TRANSPORT TIME STEP  1543 IN FLOW TIME STEP     1 STRESS PERIOD     3
      4 TOTAL ITERATIONS
     1 CALLS TO GCG PACKAGE FOR TRANSPORT TIME STEP  1544 IN FLOW TIME STEP     1 STRESS PERIOD     3
      4 TOTAL ITERATIONS
     1 CALLS TO GCG PACKAGE FOR TRANSPORT TIME STEP  1545 IN FLOW TIME STEP     1 STRESS PERIOD     3
      4 TOTAL ITERATIONS
     1 CALLS TO GCG PACKAGE FOR TRANSPORT TIME STEP  1546 IN FLOW TIME STEP     1 STRESS PERIOD     3
      4 TOTAL ITERATIONS
     1 CALLS TO GCG PACKAGE FOR TRANSPORT TIME STEP  1547 IN FLOW TIME STEP     1 STRESS PERIOD     3
      4 TOTAL ITERATIONS
     1 CALLS TO GCG PACKAGE FOR TRANSPORT TIME STEP  1548 IN FLOW TIME STEP     1 STRESS PERIOD     3
      4 TOTAL ITERATIONS
     1 CALLS TO GCG PACKAGE FOR TRANSPORT TIME STEP  1549 IN FLOW TIME STEP     1 STRESS PERIOD     3
      4 TOTAL ITERATIONS
     1 CALLS TO GCG PACKAGE FOR TRANSPORT TIME STEP  1550 IN FLOW TIME STEP     1 STRESS PERIOD     3
      4 TOTAL ITERATIONS
     1 CALLS TO GCG PACKAGE FOR TRANSPORT TIME STEP  1551 IN FLOW TIME STEP     1 STRESS PERIOD     3
      4 TOTAL ITERATIONS
     1 CALLS TO GCG PACKAGE FOR TRANSPORT TIME STEP  1552 IN FLOW TIME STEP     1 STRESS PERIOD     3
      4 TOTAL ITERATIONS
     1 CALLS TO GCG PACKAGE FOR TRANSPORT TIME STEP  1553 IN FLOW TIME STEP     1 STRESS PERIOD     3
      4 TOTAL ITERATIONS
     1 CALLS TO GCG PACKAGE FOR TRANSPORT TIME STEP  1554 IN FLOW TIME STEP     1 STRESS PERIOD     3
      4 TOTAL ITERATIONS
     1 CALLS TO GCG PACKAGE FOR TRANSPORT TIME STEP  1555 IN FLOW TIME STEP     1 STRESS PERIOD     3
      4 TOTAL ITERATIONS
     1 CALLS TO GCG PACKAGE FOR TRANSPORT TIME STEP  1556 IN FLOW TIME STEP     1 STRESS PERIOD     3
      4 TOTAL ITERATIONS
     1 CALLS TO GCG PACKAGE FOR TRANSPORT TIME STEP  1557 IN FLOW TIME STEP     1 STRESS PERIOD     3
      4 TOTAL ITERATIONS
     1 CALLS TO GCG PACKAGE FOR TRANSPORT TIME STEP  1558 IN FLOW TIME STEP     1 STRESS PERIOD     3
      4 TOTAL ITERATIONS
     1 CALLS TO GCG PACKAGE FOR TRANSPORT TIME STEP  1559 IN FLOW TIME STEP     1 STRESS PERIOD     3
      4 TOTAL ITERATIONS
     1 CALLS TO GCG PACKAGE FOR TRANSPORT TIME STEP  1560 IN FLOW TIME STEP     1 STRESS PERIOD     3
      4 TOTAL ITERATIONS
     1 CALLS TO GCG PACKAGE FOR TRANSPORT TIME STEP  1561 IN FLOW TIME STEP     1 STRESS PERIOD     3
      4 TOTAL ITERATIONS
     1 CALLS TO GCG PACKAGE FOR TRANSPORT TIME STEP  1562 IN FLOW TIME STEP     1 STRESS PERIOD     3
      4 TOTAL ITERATIONS
     1 CALLS TO GCG PACKAGE FOR TRANSPORT TIME STEP  1563 IN FLOW TIME STEP     1 STRESS PERIOD     3
      3 TOTAL ITERATIONS



 >>>>>>>>>>>>>>>>>>>>>>>>>>>>>>>>>>>>>>>>>>>>>>>>>>>>>>>FOR COMPONENT NO. 01<<<<<<<<<<<<<<<<<<<<<<<<<<<<<<<<<<<<<<<<<<<<<<<<<<<<<<<


                                            -------------------------------------------
                                                      TRANSPORT STEP NO. 1563
                                            -------------------------------------------

 TOTAL ELAPSED TIME SINCE BEGINNING OF SIMULATION =   59.86000    D   
 .....................................................................

                     CUMULATIVE MASS BUDGETS AT END OF TRANSPORT STEP 1563, TIME STEP    1, STRESS PERIOD    3
                     -----------------------------------------------------------------------------------------

                                                             IN                           OUT
                                                      ----------------             ----------------
                               CONSTANT CONCENTRATION:    0.000000                    0.000000    
                                        CONSTANT HEAD:    0.000000                  -0.3090419E-01
                                                WELLS:   0.3694164E-01                0.000000    
                               MASS STOR (FLOW MODEL):    0.000000                    0.000000    
                                MASS STORAGE (SOLUTE):   0.1951580E-04              -0.6057539E-02
                            ---------------------------------------------------------------------------
                                              [TOTAL]:   0.3696115E-01 KG           -0.3696173E-01 KG  

                                                          NET (IN - OUT):  -0.5811453E-06
                                                   DISCREPANCY (PERCENT):  -0.1572301E-02
     1 CALLS TO GCG PACKAGE FOR TRANSPORT TIME STEP  1564 IN FLOW TIME STEP     1 STRESS PERIOD     3
      4 TOTAL ITERATIONS
     1 CALLS TO GCG PACKAGE FOR TRANSPORT TIME STEP  1565 IN FLOW TIME STEP     1 STRESS PERIOD     3
      4 TOTAL ITERATIONS
     1 CALLS TO GCG PACKAGE FOR TRANSPORT TIME STEP  1566 IN FLOW TIME STEP     1 STRESS PERIOD     3
      4 TOTAL ITERATIONS
     1 CALLS TO GCG PACKAGE FOR TRANSPORT TIME STEP  1567 IN FLOW TIME STEP     1 STRESS PERIOD     3
      4 TOTAL ITERATIONS
     1 CALLS TO GCG PACKAGE FOR TRANSPORT TIME STEP  1568 IN FLOW TIME STEP     1 STRESS PERIOD     3
      4 TOTAL ITERATIONS
     1 CALLS TO GCG PACKAGE FOR TRANSPORT TIME STEP  1569 IN FLOW TIME STEP     1 STRESS PERIOD     3
      4 TOTAL ITERATIONS
     1 CALLS TO GCG PACKAGE FOR TRANSPORT TIME STEP  1570 IN FLOW TIME STEP     1 STRESS PERIOD     3
      4 TOTAL ITERATIONS
     1 CALLS TO GCG PACKAGE FOR TRANSPORT TIME STEP  1571 IN FLOW TIME STEP     1 STRESS PERIOD     3
      4 TOTAL ITERATIONS
     1 CALLS TO GCG PACKAGE FOR TRANSPORT TIME STEP  1572 IN FLOW TIME STEP     1 STRESS PERIOD     3
      4 TOTAL ITERATIONS
     1 CALLS TO GCG PACKAGE FOR TRANSPORT TIME STEP  1573 IN FLOW TIME STEP     1 STRESS PERIOD     3
      4 TOTAL ITERATIONS
     1 CALLS TO GCG PACKAGE FOR TRANSPORT TIME STEP  1574 IN FLOW TIME STEP     1 STRESS PERIOD     3
      4 TOTAL ITERATIONS
     1 CALLS TO GCG PACKAGE FOR TRANSPORT TIME STEP  1575 IN FLOW TIME STEP     1 STRESS PERIOD     3
      4 TOTAL ITERATIONS
     1 CALLS TO GCG PACKAGE FOR TRANSPORT TIME STEP  1576 IN FLOW TIME STEP     1 STRESS PERIOD     3
      4 TOTAL ITERATIONS
     1 CALLS TO GCG PACKAGE FOR TRANSPORT TIME STEP  1577 IN FLOW TIME STEP     1 STRESS PERIOD     3
      4 TOTAL ITERATIONS
     1 CALLS TO GCG PACKAGE FOR TRANSPORT TIME STEP  1578 IN FLOW TIME STEP     1 STRESS PERIOD     3
      4 TOTAL ITERATIONS
     1 CALLS TO GCG PACKAGE FOR TRANSPORT TIME STEP  1579 IN FLOW TIME STEP     1 STRESS PERIOD     3
      4 TOTAL ITERATIONS
     1 CALLS TO GCG PACKAGE FOR TRANSPORT TIME STEP  1580 IN FLOW TIME STEP     1 STRESS PERIOD     3
      4 TOTAL ITERATIONS
     1 CALLS TO GCG PACKAGE FOR TRANSPORT TIME STEP  1581 IN FLOW TIME STEP     1 STRESS PERIOD     3
      4 TOTAL ITERATIONS
     1 CALLS TO GCG PACKAGE FOR TRANSPORT TIME STEP  1582 IN FLOW TIME STEP     1 STRESS PERIOD     3
      4 TOTAL ITERATIONS
     1 CALLS TO GCG PACKAGE FOR TRANSPORT TIME STEP  1583 IN FLOW TIME STEP     1 STRESS PERIOD     3
      4 TOTAL ITERATIONS
     1 CALLS TO GCG PACKAGE FOR TRANSPORT TIME STEP  1584 IN FLOW TIME STEP     1 STRESS PERIOD     3
      4 TOTAL ITERATIONS
     1 CALLS TO GCG PACKAGE FOR TRANSPORT TIME STEP  1585 IN FLOW TIME STEP     1 STRESS PERIOD     3
      4 TOTAL ITERATIONS
     1 CALLS TO GCG PACKAGE FOR TRANSPORT TIME STEP  1586 IN FLOW TIME STEP     1 STRESS PERIOD     3
      4 TOTAL ITERATIONS
     1 CALLS TO GCG PACKAGE FOR TRANSPORT TIME STEP  1587 IN FLOW TIME STEP     1 STRESS PERIOD     3
      4 TOTAL ITERATIONS
     1 CALLS TO GCG PACKAGE FOR TRANSPORT TIME STEP  1588 IN FLOW TIME STEP     1 STRESS PERIOD     3
      4 TOTAL ITERATIONS
     1 CALLS TO GCG PACKAGE FOR TRANSPORT TIME STEP  1589 IN FLOW TIME STEP     1 STRESS PERIOD     3
      4 TOTAL ITERATIONS
     1 CALLS TO GCG PACKAGE FOR TRANSPORT TIME STEP  1590 IN FLOW TIME STEP     1 STRESS PERIOD     3
      4 TOTAL ITERATIONS
     1 CALLS TO GCG PACKAGE FOR TRANSPORT TIME STEP  1591 IN FLOW TIME STEP     1 STRESS PERIOD     3
      4 TOTAL ITERATIONS
     1 CALLS TO GCG PACKAGE FOR TRANSPORT TIME STEP  1592 IN FLOW TIME STEP     1 STRESS PERIOD     3
      4 TOTAL ITERATIONS
     1 CALLS TO GCG PACKAGE FOR TRANSPORT TIME STEP  1593 IN FLOW TIME STEP     1 STRESS PERIOD     3
      4 TOTAL ITERATIONS
     1 CALLS TO GCG PACKAGE FOR TRANSPORT TIME STEP  1594 IN FLOW TIME STEP     1 STRESS PERIOD     3
      4 TOTAL ITERATIONS
     1 CALLS TO GCG PACKAGE FOR TRANSPORT TIME STEP  1595 IN FLOW TIME STEP     1 STRESS PERIOD     3
      4 TOTAL ITERATIONS
     1 CALLS TO GCG PACKAGE FOR TRANSPORT TIME STEP  1596 IN FLOW TIME STEP     1 STRESS PERIOD     3
      4 TOTAL ITERATIONS
     1 CALLS TO GCG PACKAGE FOR TRANSPORT TIME STEP  1597 IN FLOW TIME STEP     1 STRESS PERIOD     3
      4 TOTAL ITERATIONS
     1 CALLS TO GCG PACKAGE FOR TRANSPORT TIME STEP  1598 IN FLOW TIME STEP     1 STRESS PERIOD     3
      4 TOTAL ITERATIONS
     1 CALLS TO GCG PACKAGE FOR TRANSPORT TIME STEP  1599 IN FLOW TIME STEP     1 STRESS PERIOD     3
      4 TOTAL ITERATIONS
     1 CALLS TO GCG PACKAGE FOR TRANSPORT TIME STEP  1600 IN FLOW TIME STEP     1 STRESS PERIOD     3
      4 TOTAL ITERATIONS
     1 CALLS TO GCG PACKAGE FOR TRANSPORT TIME STEP  1601 IN FLOW TIME STEP     1 STRESS PERIOD     3
      4 TOTAL ITERATIONS
     1 CALLS TO GCG PACKAGE FOR TRANSPORT TIME STEP  1602 IN FLOW TIME STEP     1 STRESS PERIOD     3
      4 TOTAL ITERATIONS
     1 CALLS TO GCG PACKAGE FOR TRANSPORT TIME STEP  1603 IN FLOW TIME STEP     1 STRESS PERIOD     3
      4 TOTAL ITERATIONS
     1 CALLS TO GCG PACKAGE FOR TRANSPORT TIME STEP  1604 IN FLOW TIME STEP     1 STRESS PERIOD     3
      4 TOTAL ITERATIONS
     1 CALLS TO GCG PACKAGE FOR TRANSPORT TIME STEP  1605 IN FLOW TIME STEP     1 STRESS PERIOD     3
      4 TOTAL ITERATIONS
     1 CALLS TO GCG PACKAGE FOR TRANSPORT TIME STEP  1606 IN FLOW TIME STEP     1 STRESS PERIOD     3
      4 TOTAL ITERATIONS
     1 CALLS TO GCG PACKAGE FOR TRANSPORT TIME STEP  1607 IN FLOW TIME STEP     1 STRESS PERIOD     3
      4 TOTAL ITERATIONS
     1 CALLS TO GCG PACKAGE FOR TRANSPORT TIME STEP  1608 IN FLOW TIME STEP     1 STRESS PERIOD     3
      4 TOTAL ITERATIONS
     1 CALLS TO GCG PACKAGE FOR TRANSPORT TIME STEP  1609 IN FLOW TIME STEP     1 STRESS PERIOD     3
      3 TOTAL ITERATIONS



 >>>>>>>>>>>>>>>>>>>>>>>>>>>>>>>>>>>>>>>>>>>>>>>>>>>>>>>FOR COMPONENT NO. 01<<<<<<<<<<<<<<<<<<<<<<<<<<<<<<<<<<<<<<<<<<<<<<<<<<<<<<<


                                            -------------------------------------------
                                                      TRANSPORT STEP NO. 1609
                                            -------------------------------------------

 TOTAL ELAPSED TIME SINCE BEGINNING OF SIMULATION =   60.68000    D   
 .....................................................................

                     CUMULATIVE MASS BUDGETS AT END OF TRANSPORT STEP 1609, TIME STEP    1, STRESS PERIOD    3
                     -----------------------------------------------------------------------------------------

                                                             IN                           OUT
                                                      ----------------             ----------------
                               CONSTANT CONCENTRATION:    0.000000                    0.000000    
                                        CONSTANT HEAD:    0.000000                  -0.3140869E-01
                                                WELLS:   0.3744761E-01                0.000000    
                               MASS STOR (FLOW MODEL):    0.000000                    0.000000    
                                MASS STORAGE (SOLUTE):   0.1954140E-04              -0.6059089E-02
                            ---------------------------------------------------------------------------
                                              [TOTAL]:   0.3746716E-01 KG           -0.3746777E-01 KG  

                                                          NET (IN - OUT):  -0.6183982E-06
                                                   DISCREPANCY (PERCENT):  -0.1650494E-02
     1 CALLS TO GCG PACKAGE FOR TRANSPORT TIME STEP  1610 IN FLOW TIME STEP     1 STRESS PERIOD     3
      4 TOTAL ITERATIONS
     1 CALLS TO GCG PACKAGE FOR TRANSPORT TIME STEP  1611 IN FLOW TIME STEP     1 STRESS PERIOD     3
      4 TOTAL ITERATIONS
     1 CALLS TO GCG PACKAGE FOR TRANSPORT TIME STEP  1612 IN FLOW TIME STEP     1 STRESS PERIOD     3
      4 TOTAL ITERATIONS
     1 CALLS TO GCG PACKAGE FOR TRANSPORT TIME STEP  1613 IN FLOW TIME STEP     1 STRESS PERIOD     3
      4 TOTAL ITERATIONS
     1 CALLS TO GCG PACKAGE FOR TRANSPORT TIME STEP  1614 IN FLOW TIME STEP     1 STRESS PERIOD     3
      4 TOTAL ITERATIONS
     1 CALLS TO GCG PACKAGE FOR TRANSPORT TIME STEP  1615 IN FLOW TIME STEP     1 STRESS PERIOD     3
      4 TOTAL ITERATIONS
     1 CALLS TO GCG PACKAGE FOR TRANSPORT TIME STEP  1616 IN FLOW TIME STEP     1 STRESS PERIOD     3
      4 TOTAL ITERATIONS
     1 CALLS TO GCG PACKAGE FOR TRANSPORT TIME STEP  1617 IN FLOW TIME STEP     1 STRESS PERIOD     3
      4 TOTAL ITERATIONS
     1 CALLS TO GCG PACKAGE FOR TRANSPORT TIME STEP  1618 IN FLOW TIME STEP     1 STRESS PERIOD     3
      4 TOTAL ITERATIONS
     1 CALLS TO GCG PACKAGE FOR TRANSPORT TIME STEP  1619 IN FLOW TIME STEP     1 STRESS PERIOD     3
      4 TOTAL ITERATIONS
     1 CALLS TO GCG PACKAGE FOR TRANSPORT TIME STEP  1620 IN FLOW TIME STEP     1 STRESS PERIOD     3
      4 TOTAL ITERATIONS
     1 CALLS TO GCG PACKAGE FOR TRANSPORT TIME STEP  1621 IN FLOW TIME STEP     1 STRESS PERIOD     3
      4 TOTAL ITERATIONS
     1 CALLS TO GCG PACKAGE FOR TRANSPORT TIME STEP  1622 IN FLOW TIME STEP     1 STRESS PERIOD     3
      4 TOTAL ITERATIONS
     1 CALLS TO GCG PACKAGE FOR TRANSPORT TIME STEP  1623 IN FLOW TIME STEP     1 STRESS PERIOD     3
      4 TOTAL ITERATIONS
     1 CALLS TO GCG PACKAGE FOR TRANSPORT TIME STEP  1624 IN FLOW TIME STEP     1 STRESS PERIOD     3
      4 TOTAL ITERATIONS
     1 CALLS TO GCG PACKAGE FOR TRANSPORT TIME STEP  1625 IN FLOW TIME STEP     1 STRESS PERIOD     3
      4 TOTAL ITERATIONS
     1 CALLS TO GCG PACKAGE FOR TRANSPORT TIME STEP  1626 IN FLOW TIME STEP     1 STRESS PERIOD     3
      4 TOTAL ITERATIONS
     1 CALLS TO GCG PACKAGE FOR TRANSPORT TIME STEP  1627 IN FLOW TIME STEP     1 STRESS PERIOD     3
      4 TOTAL ITERATIONS
     1 CALLS TO GCG PACKAGE FOR TRANSPORT TIME STEP  1628 IN FLOW TIME STEP     1 STRESS PERIOD     3
      4 TOTAL ITERATIONS
     1 CALLS TO GCG PACKAGE FOR TRANSPORT TIME STEP  1629 IN FLOW TIME STEP     1 STRESS PERIOD     3
      4 TOTAL ITERATIONS
     1 CALLS TO GCG PACKAGE FOR TRANSPORT TIME STEP  1630 IN FLOW TIME STEP     1 STRESS PERIOD     3
      4 TOTAL ITERATIONS
     1 CALLS TO GCG PACKAGE FOR TRANSPORT TIME STEP  1631 IN FLOW TIME STEP     1 STRESS PERIOD     3
      4 TOTAL ITERATIONS
     1 CALLS TO GCG PACKAGE FOR TRANSPORT TIME STEP  1632 IN FLOW TIME STEP     1 STRESS PERIOD     3
      4 TOTAL ITERATIONS
     1 CALLS TO GCG PACKAGE FOR TRANSPORT TIME STEP  1633 IN FLOW TIME STEP     1 STRESS PERIOD     3
      4 TOTAL ITERATIONS
     1 CALLS TO GCG PACKAGE FOR TRANSPORT TIME STEP  1634 IN FLOW TIME STEP     1 STRESS PERIOD     3
      4 TOTAL ITERATIONS
     1 CALLS TO GCG PACKAGE FOR TRANSPORT TIME STEP  1635 IN FLOW TIME STEP     1 STRESS PERIOD     3
      4 TOTAL ITERATIONS
     1 CALLS TO GCG PACKAGE FOR TRANSPORT TIME STEP  1636 IN FLOW TIME STEP     1 STRESS PERIOD     3
      4 TOTAL ITERATIONS
     1 CALLS TO GCG PACKAGE FOR TRANSPORT TIME STEP  1637 IN FLOW TIME STEP     1 STRESS PERIOD     3
      4 TOTAL ITERATIONS
     1 CALLS TO GCG PACKAGE FOR TRANSPORT TIME STEP  1638 IN FLOW TIME STEP     1 STRESS PERIOD     3
      4 TOTAL ITERATIONS
     1 CALLS TO GCG PACKAGE FOR TRANSPORT TIME STEP  1639 IN FLOW TIME STEP     1 STRESS PERIOD     3
      4 TOTAL ITERATIONS
     1 CALLS TO GCG PACKAGE FOR TRANSPORT TIME STEP  1640 IN FLOW TIME STEP     1 STRESS PERIOD     3
      4 TOTAL ITERATIONS
     1 CALLS TO GCG PACKAGE FOR TRANSPORT TIME STEP  1641 IN FLOW TIME STEP     1 STRESS PERIOD     3
      4 TOTAL ITERATIONS
     1 CALLS TO GCG PACKAGE FOR TRANSPORT TIME STEP  1642 IN FLOW TIME STEP     1 STRESS PERIOD     3
      4 TOTAL ITERATIONS
     1 CALLS TO GCG PACKAGE FOR TRANSPORT TIME STEP  1643 IN FLOW TIME STEP     1 STRESS PERIOD     3
      4 TOTAL ITERATIONS
     1 CALLS TO GCG PACKAGE FOR TRANSPORT TIME STEP  1644 IN FLOW TIME STEP     1 STRESS PERIOD     3
      4 TOTAL ITERATIONS
     1 CALLS TO GCG PACKAGE FOR TRANSPORT TIME STEP  1645 IN FLOW TIME STEP     1 STRESS PERIOD     3
      4 TOTAL ITERATIONS
     1 CALLS TO GCG PACKAGE FOR TRANSPORT TIME STEP  1646 IN FLOW TIME STEP     1 STRESS PERIOD     3
      4 TOTAL ITERATIONS
     1 CALLS TO GCG PACKAGE FOR TRANSPORT TIME STEP  1647 IN FLOW TIME STEP     1 STRESS PERIOD     3
      4 TOTAL ITERATIONS
     1 CALLS TO GCG PACKAGE FOR TRANSPORT TIME STEP  1648 IN FLOW TIME STEP     1 STRESS PERIOD     3
      4 TOTAL ITERATIONS
     1 CALLS TO GCG PACKAGE FOR TRANSPORT TIME STEP  1649 IN FLOW TIME STEP     1 STRESS PERIOD     3
      4 TOTAL ITERATIONS
     1 CALLS TO GCG PACKAGE FOR TRANSPORT TIME STEP  1650 IN FLOW TIME STEP     1 STRESS PERIOD     3
      4 TOTAL ITERATIONS
     1 CALLS TO GCG PACKAGE FOR TRANSPORT TIME STEP  1651 IN FLOW TIME STEP     1 STRESS PERIOD     3
      4 TOTAL ITERATIONS
     1 CALLS TO GCG PACKAGE FOR TRANSPORT TIME STEP  1652 IN FLOW TIME STEP     1 STRESS PERIOD     3
      4 TOTAL ITERATIONS
     1 CALLS TO GCG PACKAGE FOR TRANSPORT TIME STEP  1653 IN FLOW TIME STEP     1 STRESS PERIOD     3
      4 TOTAL ITERATIONS
     1 CALLS TO GCG PACKAGE FOR TRANSPORT TIME STEP  1654 IN FLOW TIME STEP     1 STRESS PERIOD     3
      4 TOTAL ITERATIONS
     1 CALLS TO GCG PACKAGE FOR TRANSPORT TIME STEP  1655 IN FLOW TIME STEP     1 STRESS PERIOD     3
      3 TOTAL ITERATIONS



 >>>>>>>>>>>>>>>>>>>>>>>>>>>>>>>>>>>>>>>>>>>>>>>>>>>>>>>FOR COMPONENT NO. 01<<<<<<<<<<<<<<<<<<<<<<<<<<<<<<<<<<<<<<<<<<<<<<<<<<<<<<<


                                            -------------------------------------------
                                                      TRANSPORT STEP NO. 1655
                                            -------------------------------------------

 TOTAL ELAPSED TIME SINCE BEGINNING OF SIMULATION =   61.50000    D   
 .....................................................................

                     CUMULATIVE MASS BUDGETS AT END OF TRANSPORT STEP 1655, TIME STEP    1, STRESS PERIOD    3
                     -----------------------------------------------------------------------------------------

                                                             IN                           OUT
                                                      ----------------             ----------------
                               CONSTANT CONCENTRATION:    0.000000                    0.000000    
                                        CONSTANT HEAD:    0.000000                  -0.3191332E-01
                                                WELLS:   0.3795359E-01                0.000000    
                               MASS STOR (FLOW MODEL):    0.000000                    0.000000    
                                MASS STORAGE (SOLUTE):   0.1956708E-04              -0.6060544E-02
                            ---------------------------------------------------------------------------
                                              [TOTAL]:   0.3797315E-01 KG           -0.3797386E-01 KG  

                                                          NET (IN - OUT):  -0.7078052E-06
                                                   DISCREPANCY (PERCENT):  -0.1863945E-02
     1 CALLS TO GCG PACKAGE FOR TRANSPORT TIME STEP  1656 IN FLOW TIME STEP     1 STRESS PERIOD     3
      4 TOTAL ITERATIONS
     1 CALLS TO GCG PACKAGE FOR TRANSPORT TIME STEP  1657 IN FLOW TIME STEP     1 STRESS PERIOD     3
      4 TOTAL ITERATIONS
     1 CALLS TO GCG PACKAGE FOR TRANSPORT TIME STEP  1658 IN FLOW TIME STEP     1 STRESS PERIOD     3
      4 TOTAL ITERATIONS
     1 CALLS TO GCG PACKAGE FOR TRANSPORT TIME STEP  1659 IN FLOW TIME STEP     1 STRESS PERIOD     3
      4 TOTAL ITERATIONS
     1 CALLS TO GCG PACKAGE FOR TRANSPORT TIME STEP  1660 IN FLOW TIME STEP     1 STRESS PERIOD     3
      4 TOTAL ITERATIONS
     1 CALLS TO GCG PACKAGE FOR TRANSPORT TIME STEP  1661 IN FLOW TIME STEP     1 STRESS PERIOD     3
      4 TOTAL ITERATIONS
     1 CALLS TO GCG PACKAGE FOR TRANSPORT TIME STEP  1662 IN FLOW TIME STEP     1 STRESS PERIOD     3
      4 TOTAL ITERATIONS
     1 CALLS TO GCG PACKAGE FOR TRANSPORT TIME STEP  1663 IN FLOW TIME STEP     1 STRESS PERIOD     3
      4 TOTAL ITERATIONS
     1 CALLS TO GCG PACKAGE FOR TRANSPORT TIME STEP  1664 IN FLOW TIME STEP     1 STRESS PERIOD     3
      4 TOTAL ITERATIONS
     1 CALLS TO GCG PACKAGE FOR TRANSPORT TIME STEP  1665 IN FLOW TIME STEP     1 STRESS PERIOD     3
      4 TOTAL ITERATIONS
     1 CALLS TO GCG PACKAGE FOR TRANSPORT TIME STEP  1666 IN FLOW TIME STEP     1 STRESS PERIOD     3
      4 TOTAL ITERATIONS
     1 CALLS TO GCG PACKAGE FOR TRANSPORT TIME STEP  1667 IN FLOW TIME STEP     1 STRESS PERIOD     3
      4 TOTAL ITERATIONS
     1 CALLS TO GCG PACKAGE FOR TRANSPORT TIME STEP  1668 IN FLOW TIME STEP     1 STRESS PERIOD     3
      4 TOTAL ITERATIONS
     1 CALLS TO GCG PACKAGE FOR TRANSPORT TIME STEP  1669 IN FLOW TIME STEP     1 STRESS PERIOD     3
      4 TOTAL ITERATIONS
     1 CALLS TO GCG PACKAGE FOR TRANSPORT TIME STEP  1670 IN FLOW TIME STEP     1 STRESS PERIOD     3
      4 TOTAL ITERATIONS
     1 CALLS TO GCG PACKAGE FOR TRANSPORT TIME STEP  1671 IN FLOW TIME STEP     1 STRESS PERIOD     3
      4 TOTAL ITERATIONS
     1 CALLS TO GCG PACKAGE FOR TRANSPORT TIME STEP  1672 IN FLOW TIME STEP     1 STRESS PERIOD     3
      4 TOTAL ITERATIONS
     1 CALLS TO GCG PACKAGE FOR TRANSPORT TIME STEP  1673 IN FLOW TIME STEP     1 STRESS PERIOD     3
      4 TOTAL ITERATIONS
     1 CALLS TO GCG PACKAGE FOR TRANSPORT TIME STEP  1674 IN FLOW TIME STEP     1 STRESS PERIOD     3
      4 TOTAL ITERATIONS
     1 CALLS TO GCG PACKAGE FOR TRANSPORT TIME STEP  1675 IN FLOW TIME STEP     1 STRESS PERIOD     3
      4 TOTAL ITERATIONS
     1 CALLS TO GCG PACKAGE FOR TRANSPORT TIME STEP  1676 IN FLOW TIME STEP     1 STRESS PERIOD     3
      4 TOTAL ITERATIONS
     1 CALLS TO GCG PACKAGE FOR TRANSPORT TIME STEP  1677 IN FLOW TIME STEP     1 STRESS PERIOD     3
      4 TOTAL ITERATIONS
     1 CALLS TO GCG PACKAGE FOR TRANSPORT TIME STEP  1678 IN FLOW TIME STEP     1 STRESS PERIOD     3
      4 TOTAL ITERATIONS
     1 CALLS TO GCG PACKAGE FOR TRANSPORT TIME STEP  1679 IN FLOW TIME STEP     1 STRESS PERIOD     3
      4 TOTAL ITERATIONS
     1 CALLS TO GCG PACKAGE FOR TRANSPORT TIME STEP  1680 IN FLOW TIME STEP     1 STRESS PERIOD     3
      4 TOTAL ITERATIONS
     1 CALLS TO GCG PACKAGE FOR TRANSPORT TIME STEP  1681 IN FLOW TIME STEP     1 STRESS PERIOD     3
      4 TOTAL ITERATIONS
     1 CALLS TO GCG PACKAGE FOR TRANSPORT TIME STEP  1682 IN FLOW TIME STEP     1 STRESS PERIOD     3
      4 TOTAL ITERATIONS
     1 CALLS TO GCG PACKAGE FOR TRANSPORT TIME STEP  1683 IN FLOW TIME STEP     1 STRESS PERIOD     3
      4 TOTAL ITERATIONS
     1 CALLS TO GCG PACKAGE FOR TRANSPORT TIME STEP  1684 IN FLOW TIME STEP     1 STRESS PERIOD     3
      4 TOTAL ITERATIONS
     1 CALLS TO GCG PACKAGE FOR TRANSPORT TIME STEP  1685 IN FLOW TIME STEP     1 STRESS PERIOD     3
      4 TOTAL ITERATIONS
     1 CALLS TO GCG PACKAGE FOR TRANSPORT TIME STEP  1686 IN FLOW TIME STEP     1 STRESS PERIOD     3
      4 TOTAL ITERATIONS
     1 CALLS TO GCG PACKAGE FOR TRANSPORT TIME STEP  1687 IN FLOW TIME STEP     1 STRESS PERIOD     3
      4 TOTAL ITERATIONS
     1 CALLS TO GCG PACKAGE FOR TRANSPORT TIME STEP  1688 IN FLOW TIME STEP     1 STRESS PERIOD     3
      4 TOTAL ITERATIONS
     1 CALLS TO GCG PACKAGE FOR TRANSPORT TIME STEP  1689 IN FLOW TIME STEP     1 STRESS PERIOD     3
      4 TOTAL ITERATIONS
     1 CALLS TO GCG PACKAGE FOR TRANSPORT TIME STEP  1690 IN FLOW TIME STEP     1 STRESS PERIOD     3
      4 TOTAL ITERATIONS
     1 CALLS TO GCG PACKAGE FOR TRANSPORT TIME STEP  1691 IN FLOW TIME STEP     1 STRESS PERIOD     3
      4 TOTAL ITERATIONS
     1 CALLS TO GCG PACKAGE FOR TRANSPORT TIME STEP  1692 IN FLOW TIME STEP     1 STRESS PERIOD     3
      4 TOTAL ITERATIONS
     1 CALLS TO GCG PACKAGE FOR TRANSPORT TIME STEP  1693 IN FLOW TIME STEP     1 STRESS PERIOD     3
      4 TOTAL ITERATIONS
     1 CALLS TO GCG PACKAGE FOR TRANSPORT TIME STEP  1694 IN FLOW TIME STEP     1 STRESS PERIOD     3
      4 TOTAL ITERATIONS
     1 CALLS TO GCG PACKAGE FOR TRANSPORT TIME STEP  1695 IN FLOW TIME STEP     1 STRESS PERIOD     3
      4 TOTAL ITERATIONS
     1 CALLS TO GCG PACKAGE FOR TRANSPORT TIME STEP  1696 IN FLOW TIME STEP     1 STRESS PERIOD     3
      4 TOTAL ITERATIONS
     1 CALLS TO GCG PACKAGE FOR TRANSPORT TIME STEP  1697 IN FLOW TIME STEP     1 STRESS PERIOD     3
      4 TOTAL ITERATIONS
     1 CALLS TO GCG PACKAGE FOR TRANSPORT TIME STEP  1698 IN FLOW TIME STEP     1 STRESS PERIOD     3
      4 TOTAL ITERATIONS
     1 CALLS TO GCG PACKAGE FOR TRANSPORT TIME STEP  1699 IN FLOW TIME STEP     1 STRESS PERIOD     3
      4 TOTAL ITERATIONS
     1 CALLS TO GCG PACKAGE FOR TRANSPORT TIME STEP  1700 IN FLOW TIME STEP     1 STRESS PERIOD     3
      4 TOTAL ITERATIONS
     1 CALLS TO GCG PACKAGE FOR TRANSPORT TIME STEP  1701 IN FLOW TIME STEP     1 STRESS PERIOD     3
      3 TOTAL ITERATIONS



 >>>>>>>>>>>>>>>>>>>>>>>>>>>>>>>>>>>>>>>>>>>>>>>>>>>>>>>FOR COMPONENT NO. 01<<<<<<<<<<<<<<<<<<<<<<<<<<<<<<<<<<<<<<<<<<<<<<<<<<<<<<<


                                            -------------------------------------------
                                                      TRANSPORT STEP NO. 1701
                                            -------------------------------------------

 TOTAL ELAPSED TIME SINCE BEGINNING OF SIMULATION =   62.32000    D   
 .....................................................................

                     CUMULATIVE MASS BUDGETS AT END OF TRANSPORT STEP 1701, TIME STEP    1, STRESS PERIOD    3
                     -----------------------------------------------------------------------------------------

                                                             IN                           OUT
                                                      ----------------             ----------------
                               CONSTANT CONCENTRATION:    0.000000                    0.000000    
                                        CONSTANT HEAD:    0.000000                  -0.3241798E-01
                                                WELLS:   0.3845957E-01                0.000000    
                               MASS STOR (FLOW MODEL):    0.000000                    0.000000    
                                MASS STORAGE (SOLUTE):   0.1959285E-04              -0.6061909E-02
                            ---------------------------------------------------------------------------
                                              [TOTAL]:   0.3847916E-01 KG           -0.3847989E-01 KG  

                                                          NET (IN - OUT):  -0.7338822E-06
                                                   DISCREPANCY (PERCENT):  -0.1907202E-02
     1 CALLS TO GCG PACKAGE FOR TRANSPORT TIME STEP  1702 IN FLOW TIME STEP     1 STRESS PERIOD     3
      4 TOTAL ITERATIONS
     1 CALLS TO GCG PACKAGE FOR TRANSPORT TIME STEP  1703 IN FLOW TIME STEP     1 STRESS PERIOD     3
      4 TOTAL ITERATIONS
     1 CALLS TO GCG PACKAGE FOR TRANSPORT TIME STEP  1704 IN FLOW TIME STEP     1 STRESS PERIOD     3
      4 TOTAL ITERATIONS
     1 CALLS TO GCG PACKAGE FOR TRANSPORT TIME STEP  1705 IN FLOW TIME STEP     1 STRESS PERIOD     3
      4 TOTAL ITERATIONS
     1 CALLS TO GCG PACKAGE FOR TRANSPORT TIME STEP  1706 IN FLOW TIME STEP     1 STRESS PERIOD     3
      4 TOTAL ITERATIONS
     1 CALLS TO GCG PACKAGE FOR TRANSPORT TIME STEP  1707 IN FLOW TIME STEP     1 STRESS PERIOD     3
      4 TOTAL ITERATIONS
     1 CALLS TO GCG PACKAGE FOR TRANSPORT TIME STEP  1708 IN FLOW TIME STEP     1 STRESS PERIOD     3
      4 TOTAL ITERATIONS
     1 CALLS TO GCG PACKAGE FOR TRANSPORT TIME STEP  1709 IN FLOW TIME STEP     1 STRESS PERIOD     3
      4 TOTAL ITERATIONS
     1 CALLS TO GCG PACKAGE FOR TRANSPORT TIME STEP  1710 IN FLOW TIME STEP     1 STRESS PERIOD     3
      4 TOTAL ITERATIONS
     1 CALLS TO GCG PACKAGE FOR TRANSPORT TIME STEP  1711 IN FLOW TIME STEP     1 STRESS PERIOD     3
      4 TOTAL ITERATIONS
     1 CALLS TO GCG PACKAGE FOR TRANSPORT TIME STEP  1712 IN FLOW TIME STEP     1 STRESS PERIOD     3
      4 TOTAL ITERATIONS
     1 CALLS TO GCG PACKAGE FOR TRANSPORT TIME STEP  1713 IN FLOW TIME STEP     1 STRESS PERIOD     3
      4 TOTAL ITERATIONS
     1 CALLS TO GCG PACKAGE FOR TRANSPORT TIME STEP  1714 IN FLOW TIME STEP     1 STRESS PERIOD     3
      4 TOTAL ITERATIONS
     1 CALLS TO GCG PACKAGE FOR TRANSPORT TIME STEP  1715 IN FLOW TIME STEP     1 STRESS PERIOD     3
      4 TOTAL ITERATIONS
     1 CALLS TO GCG PACKAGE FOR TRANSPORT TIME STEP  1716 IN FLOW TIME STEP     1 STRESS PERIOD     3
      4 TOTAL ITERATIONS
     1 CALLS TO GCG PACKAGE FOR TRANSPORT TIME STEP  1717 IN FLOW TIME STEP     1 STRESS PERIOD     3
      4 TOTAL ITERATIONS
     1 CALLS TO GCG PACKAGE FOR TRANSPORT TIME STEP  1718 IN FLOW TIME STEP     1 STRESS PERIOD     3
      4 TOTAL ITERATIONS
     1 CALLS TO GCG PACKAGE FOR TRANSPORT TIME STEP  1719 IN FLOW TIME STEP     1 STRESS PERIOD     3
      4 TOTAL ITERATIONS
     1 CALLS TO GCG PACKAGE FOR TRANSPORT TIME STEP  1720 IN FLOW TIME STEP     1 STRESS PERIOD     3
      4 TOTAL ITERATIONS
     1 CALLS TO GCG PACKAGE FOR TRANSPORT TIME STEP  1721 IN FLOW TIME STEP     1 STRESS PERIOD     3
      4 TOTAL ITERATIONS
     1 CALLS TO GCG PACKAGE FOR TRANSPORT TIME STEP  1722 IN FLOW TIME STEP     1 STRESS PERIOD     3
      4 TOTAL ITERATIONS
     1 CALLS TO GCG PACKAGE FOR TRANSPORT TIME STEP  1723 IN FLOW TIME STEP     1 STRESS PERIOD     3
      4 TOTAL ITERATIONS
     1 CALLS TO GCG PACKAGE FOR TRANSPORT TIME STEP  1724 IN FLOW TIME STEP     1 STRESS PERIOD     3
      4 TOTAL ITERATIONS
     1 CALLS TO GCG PACKAGE FOR TRANSPORT TIME STEP  1725 IN FLOW TIME STEP     1 STRESS PERIOD     3
      4 TOTAL ITERATIONS
     1 CALLS TO GCG PACKAGE FOR TRANSPORT TIME STEP  1726 IN FLOW TIME STEP     1 STRESS PERIOD     3
      4 TOTAL ITERATIONS
     1 CALLS TO GCG PACKAGE FOR TRANSPORT TIME STEP  1727 IN FLOW TIME STEP     1 STRESS PERIOD     3
      4 TOTAL ITERATIONS
     1 CALLS TO GCG PACKAGE FOR TRANSPORT TIME STEP  1728 IN FLOW TIME STEP     1 STRESS PERIOD     3
      4 TOTAL ITERATIONS
     1 CALLS TO GCG PACKAGE FOR TRANSPORT TIME STEP  1729 IN FLOW TIME STEP     1 STRESS PERIOD     3
      4 TOTAL ITERATIONS
     1 CALLS TO GCG PACKAGE FOR TRANSPORT TIME STEP  1730 IN FLOW TIME STEP     1 STRESS PERIOD     3
      4 TOTAL ITERATIONS
     1 CALLS TO GCG PACKAGE FOR TRANSPORT TIME STEP  1731 IN FLOW TIME STEP     1 STRESS PERIOD     3
      4 TOTAL ITERATIONS
     1 CALLS TO GCG PACKAGE FOR TRANSPORT TIME STEP  1732 IN FLOW TIME STEP     1 STRESS PERIOD     3
      4 TOTAL ITERATIONS
     1 CALLS TO GCG PACKAGE FOR TRANSPORT TIME STEP  1733 IN FLOW TIME STEP     1 STRESS PERIOD     3
      4 TOTAL ITERATIONS
     1 CALLS TO GCG PACKAGE FOR TRANSPORT TIME STEP  1734 IN FLOW TIME STEP     1 STRESS PERIOD     3
      4 TOTAL ITERATIONS
     1 CALLS TO GCG PACKAGE FOR TRANSPORT TIME STEP  1735 IN FLOW TIME STEP     1 STRESS PERIOD     3
      4 TOTAL ITERATIONS
     1 CALLS TO GCG PACKAGE FOR TRANSPORT TIME STEP  1736 IN FLOW TIME STEP     1 STRESS PERIOD     3
      4 TOTAL ITERATIONS
     1 CALLS TO GCG PACKAGE FOR TRANSPORT TIME STEP  1737 IN FLOW TIME STEP     1 STRESS PERIOD     3
      4 TOTAL ITERATIONS
     1 CALLS TO GCG PACKAGE FOR TRANSPORT TIME STEP  1738 IN FLOW TIME STEP     1 STRESS PERIOD     3
      4 TOTAL ITERATIONS
     1 CALLS TO GCG PACKAGE FOR TRANSPORT TIME STEP  1739 IN FLOW TIME STEP     1 STRESS PERIOD     3
      4 TOTAL ITERATIONS
     1 CALLS TO GCG PACKAGE FOR TRANSPORT TIME STEP  1740 IN FLOW TIME STEP     1 STRESS PERIOD     3
      4 TOTAL ITERATIONS
     1 CALLS TO GCG PACKAGE FOR TRANSPORT TIME STEP  1741 IN FLOW TIME STEP     1 STRESS PERIOD     3
      4 TOTAL ITERATIONS
     1 CALLS TO GCG PACKAGE FOR TRANSPORT TIME STEP  1742 IN FLOW TIME STEP     1 STRESS PERIOD     3
      4 TOTAL ITERATIONS
     1 CALLS TO GCG PACKAGE FOR TRANSPORT TIME STEP  1743 IN FLOW TIME STEP     1 STRESS PERIOD     3
      4 TOTAL ITERATIONS
     1 CALLS TO GCG PACKAGE FOR TRANSPORT TIME STEP  1744 IN FLOW TIME STEP     1 STRESS PERIOD     3
      4 TOTAL ITERATIONS
     1 CALLS TO GCG PACKAGE FOR TRANSPORT TIME STEP  1745 IN FLOW TIME STEP     1 STRESS PERIOD     3
      4 TOTAL ITERATIONS
     1 CALLS TO GCG PACKAGE FOR TRANSPORT TIME STEP  1746 IN FLOW TIME STEP     1 STRESS PERIOD     3
      4 TOTAL ITERATIONS
     1 CALLS TO GCG PACKAGE FOR TRANSPORT TIME STEP  1747 IN FLOW TIME STEP     1 STRESS PERIOD     3
      3 TOTAL ITERATIONS



 >>>>>>>>>>>>>>>>>>>>>>>>>>>>>>>>>>>>>>>>>>>>>>>>>>>>>>>FOR COMPONENT NO. 01<<<<<<<<<<<<<<<<<<<<<<<<<<<<<<<<<<<<<<<<<<<<<<<<<<<<<<<


                                            -------------------------------------------
                                                      TRANSPORT STEP NO. 1747
                                            -------------------------------------------

 TOTAL ELAPSED TIME SINCE BEGINNING OF SIMULATION =   63.14000    D   
 .....................................................................

                     CUMULATIVE MASS BUDGETS AT END OF TRANSPORT STEP 1747, TIME STEP    1, STRESS PERIOD    3
                     -----------------------------------------------------------------------------------------

                                                             IN                           OUT
                                                      ----------------             ----------------
                               CONSTANT CONCENTRATION:    0.000000                    0.000000    
                                        CONSTANT HEAD:    0.000000                  -0.3292278E-01
                                                WELLS:   0.3896554E-01                0.000000    
                               MASS STOR (FLOW MODEL):    0.000000                    0.000000    
                                MASS STORAGE (SOLUTE):   0.1961870E-04              -0.6063191E-02
                            ---------------------------------------------------------------------------
                                              [TOTAL]:   0.3898516E-01 KG           -0.3898597E-01 KG  

                                                          NET (IN - OUT):  -0.8121133E-06
                                                   DISCREPANCY (PERCENT):  -0.2083113E-02
     1 CALLS TO GCG PACKAGE FOR TRANSPORT TIME STEP  1748 IN FLOW TIME STEP     1 STRESS PERIOD     3
      4 TOTAL ITERATIONS
     1 CALLS TO GCG PACKAGE FOR TRANSPORT TIME STEP  1749 IN FLOW TIME STEP     1 STRESS PERIOD     3
      4 TOTAL ITERATIONS
     1 CALLS TO GCG PACKAGE FOR TRANSPORT TIME STEP  1750 IN FLOW TIME STEP     1 STRESS PERIOD     3
      4 TOTAL ITERATIONS
     1 CALLS TO GCG PACKAGE FOR TRANSPORT TIME STEP  1751 IN FLOW TIME STEP     1 STRESS PERIOD     3
      4 TOTAL ITERATIONS
     1 CALLS TO GCG PACKAGE FOR TRANSPORT TIME STEP  1752 IN FLOW TIME STEP     1 STRESS PERIOD     3
      4 TOTAL ITERATIONS
     1 CALLS TO GCG PACKAGE FOR TRANSPORT TIME STEP  1753 IN FLOW TIME STEP     1 STRESS PERIOD     3
      4 TOTAL ITERATIONS
     1 CALLS TO GCG PACKAGE FOR TRANSPORT TIME STEP  1754 IN FLOW TIME STEP     1 STRESS PERIOD     3
      4 TOTAL ITERATIONS
     1 CALLS TO GCG PACKAGE FOR TRANSPORT TIME STEP  1755 IN FLOW TIME STEP     1 STRESS PERIOD     3
      4 TOTAL ITERATIONS
     1 CALLS TO GCG PACKAGE FOR TRANSPORT TIME STEP  1756 IN FLOW TIME STEP     1 STRESS PERIOD     3
      4 TOTAL ITERATIONS
     1 CALLS TO GCG PACKAGE FOR TRANSPORT TIME STEP  1757 IN FLOW TIME STEP     1 STRESS PERIOD     3
      4 TOTAL ITERATIONS
     1 CALLS TO GCG PACKAGE FOR TRANSPORT TIME STEP  1758 IN FLOW TIME STEP     1 STRESS PERIOD     3
      4 TOTAL ITERATIONS
     1 CALLS TO GCG PACKAGE FOR TRANSPORT TIME STEP  1759 IN FLOW TIME STEP     1 STRESS PERIOD     3
      4 TOTAL ITERATIONS
     1 CALLS TO GCG PACKAGE FOR TRANSPORT TIME STEP  1760 IN FLOW TIME STEP     1 STRESS PERIOD     3
      4 TOTAL ITERATIONS
     1 CALLS TO GCG PACKAGE FOR TRANSPORT TIME STEP  1761 IN FLOW TIME STEP     1 STRESS PERIOD     3
      4 TOTAL ITERATIONS
     1 CALLS TO GCG PACKAGE FOR TRANSPORT TIME STEP  1762 IN FLOW TIME STEP     1 STRESS PERIOD     3
      4 TOTAL ITERATIONS
     1 CALLS TO GCG PACKAGE FOR TRANSPORT TIME STEP  1763 IN FLOW TIME STEP     1 STRESS PERIOD     3
      4 TOTAL ITERATIONS
     1 CALLS TO GCG PACKAGE FOR TRANSPORT TIME STEP  1764 IN FLOW TIME STEP     1 STRESS PERIOD     3
      4 TOTAL ITERATIONS
     1 CALLS TO GCG PACKAGE FOR TRANSPORT TIME STEP  1765 IN FLOW TIME STEP     1 STRESS PERIOD     3
      4 TOTAL ITERATIONS
     1 CALLS TO GCG PACKAGE FOR TRANSPORT TIME STEP  1766 IN FLOW TIME STEP     1 STRESS PERIOD     3
      4 TOTAL ITERATIONS
     1 CALLS TO GCG PACKAGE FOR TRANSPORT TIME STEP  1767 IN FLOW TIME STEP     1 STRESS PERIOD     3
      4 TOTAL ITERATIONS
     1 CALLS TO GCG PACKAGE FOR TRANSPORT TIME STEP  1768 IN FLOW TIME STEP     1 STRESS PERIOD     3
      4 TOTAL ITERATIONS
     1 CALLS TO GCG PACKAGE FOR TRANSPORT TIME STEP  1769 IN FLOW TIME STEP     1 STRESS PERIOD     3
      4 TOTAL ITERATIONS
     1 CALLS TO GCG PACKAGE FOR TRANSPORT TIME STEP  1770 IN FLOW TIME STEP     1 STRESS PERIOD     3
      4 TOTAL ITERATIONS
     1 CALLS TO GCG PACKAGE FOR TRANSPORT TIME STEP  1771 IN FLOW TIME STEP     1 STRESS PERIOD     3
      4 TOTAL ITERATIONS
     1 CALLS TO GCG PACKAGE FOR TRANSPORT TIME STEP  1772 IN FLOW TIME STEP     1 STRESS PERIOD     3
      4 TOTAL ITERATIONS
     1 CALLS TO GCG PACKAGE FOR TRANSPORT TIME STEP  1773 IN FLOW TIME STEP     1 STRESS PERIOD     3
      4 TOTAL ITERATIONS
     1 CALLS TO GCG PACKAGE FOR TRANSPORT TIME STEP  1774 IN FLOW TIME STEP     1 STRESS PERIOD     3
      4 TOTAL ITERATIONS
     1 CALLS TO GCG PACKAGE FOR TRANSPORT TIME STEP  1775 IN FLOW TIME STEP     1 STRESS PERIOD     3
      4 TOTAL ITERATIONS
     1 CALLS TO GCG PACKAGE FOR TRANSPORT TIME STEP  1776 IN FLOW TIME STEP     1 STRESS PERIOD     3
      4 TOTAL ITERATIONS
     1 CALLS TO GCG PACKAGE FOR TRANSPORT TIME STEP  1777 IN FLOW TIME STEP     1 STRESS PERIOD     3
      4 TOTAL ITERATIONS
     1 CALLS TO GCG PACKAGE FOR TRANSPORT TIME STEP  1778 IN FLOW TIME STEP     1 STRESS PERIOD     3
      4 TOTAL ITERATIONS
     1 CALLS TO GCG PACKAGE FOR TRANSPORT TIME STEP  1779 IN FLOW TIME STEP     1 STRESS PERIOD     3
      4 TOTAL ITERATIONS
     1 CALLS TO GCG PACKAGE FOR TRANSPORT TIME STEP  1780 IN FLOW TIME STEP     1 STRESS PERIOD     3
      4 TOTAL ITERATIONS
     1 CALLS TO GCG PACKAGE FOR TRANSPORT TIME STEP  1781 IN FLOW TIME STEP     1 STRESS PERIOD     3
      4 TOTAL ITERATIONS
     1 CALLS TO GCG PACKAGE FOR TRANSPORT TIME STEP  1782 IN FLOW TIME STEP     1 STRESS PERIOD     3
      4 TOTAL ITERATIONS
     1 CALLS TO GCG PACKAGE FOR TRANSPORT TIME STEP  1783 IN FLOW TIME STEP     1 STRESS PERIOD     3
      4 TOTAL ITERATIONS
     1 CALLS TO GCG PACKAGE FOR TRANSPORT TIME STEP  1784 IN FLOW TIME STEP     1 STRESS PERIOD     3
      4 TOTAL ITERATIONS
     1 CALLS TO GCG PACKAGE FOR TRANSPORT TIME STEP  1785 IN FLOW TIME STEP     1 STRESS PERIOD     3
      4 TOTAL ITERATIONS
     1 CALLS TO GCG PACKAGE FOR TRANSPORT TIME STEP  1786 IN FLOW TIME STEP     1 STRESS PERIOD     3
      4 TOTAL ITERATIONS
     1 CALLS TO GCG PACKAGE FOR TRANSPORT TIME STEP  1787 IN FLOW TIME STEP     1 STRESS PERIOD     3
      4 TOTAL ITERATIONS
     1 CALLS TO GCG PACKAGE FOR TRANSPORT TIME STEP  1788 IN FLOW TIME STEP     1 STRESS PERIOD     3
      4 TOTAL ITERATIONS
     1 CALLS TO GCG PACKAGE FOR TRANSPORT TIME STEP  1789 IN FLOW TIME STEP     1 STRESS PERIOD     3
      4 TOTAL ITERATIONS
     1 CALLS TO GCG PACKAGE FOR TRANSPORT TIME STEP  1790 IN FLOW TIME STEP     1 STRESS PERIOD     3
      4 TOTAL ITERATIONS
     1 CALLS TO GCG PACKAGE FOR TRANSPORT TIME STEP  1791 IN FLOW TIME STEP     1 STRESS PERIOD     3
      4 TOTAL ITERATIONS
     1 CALLS TO GCG PACKAGE FOR TRANSPORT TIME STEP  1792 IN FLOW TIME STEP     1 STRESS PERIOD     3
      4 TOTAL ITERATIONS
     1 CALLS TO GCG PACKAGE FOR TRANSPORT TIME STEP  1793 IN FLOW TIME STEP     1 STRESS PERIOD     3
      3 TOTAL ITERATIONS



 >>>>>>>>>>>>>>>>>>>>>>>>>>>>>>>>>>>>>>>>>>>>>>>>>>>>>>>FOR COMPONENT NO. 01<<<<<<<<<<<<<<<<<<<<<<<<<<<<<<<<<<<<<<<<<<<<<<<<<<<<<<<


                                            -------------------------------------------
                                                      TRANSPORT STEP NO. 1793
                                            -------------------------------------------

 TOTAL ELAPSED TIME SINCE BEGINNING OF SIMULATION =   63.96000    D   
 .....................................................................

                     CUMULATIVE MASS BUDGETS AT END OF TRANSPORT STEP 1793, TIME STEP    1, STRESS PERIOD    3
                     -----------------------------------------------------------------------------------------

                                                             IN                           OUT
                                                      ----------------             ----------------
                               CONSTANT CONCENTRATION:    0.000000                    0.000000    
                                        CONSTANT HEAD:    0.000000                  -0.3342760E-01
                                                WELLS:   0.3947152E-01                0.000000    
                               MASS STOR (FLOW MODEL):    0.000000                    0.000000    
                                MASS STORAGE (SOLUTE):   0.1964467E-04              -0.6064395E-02
                            ---------------------------------------------------------------------------
                                              [TOTAL]:   0.3949116E-01 KG           -0.3949199E-01 KG  

                                                          NET (IN - OUT):  -0.8307397E-06
                                                   DISCREPANCY (PERCENT):  -0.2103587E-02
     1 CALLS TO GCG PACKAGE FOR TRANSPORT TIME STEP  1794 IN FLOW TIME STEP     1 STRESS PERIOD     3
      4 TOTAL ITERATIONS
     1 CALLS TO GCG PACKAGE FOR TRANSPORT TIME STEP  1795 IN FLOW TIME STEP     1 STRESS PERIOD     3
      4 TOTAL ITERATIONS
     1 CALLS TO GCG PACKAGE FOR TRANSPORT TIME STEP  1796 IN FLOW TIME STEP     1 STRESS PERIOD     3
      4 TOTAL ITERATIONS
     1 CALLS TO GCG PACKAGE FOR TRANSPORT TIME STEP  1797 IN FLOW TIME STEP     1 STRESS PERIOD     3
      4 TOTAL ITERATIONS
     1 CALLS TO GCG PACKAGE FOR TRANSPORT TIME STEP  1798 IN FLOW TIME STEP     1 STRESS PERIOD     3
      4 TOTAL ITERATIONS
     1 CALLS TO GCG PACKAGE FOR TRANSPORT TIME STEP  1799 IN FLOW TIME STEP     1 STRESS PERIOD     3
      4 TOTAL ITERATIONS
     1 CALLS TO GCG PACKAGE FOR TRANSPORT TIME STEP  1800 IN FLOW TIME STEP     1 STRESS PERIOD     3
      4 TOTAL ITERATIONS
     1 CALLS TO GCG PACKAGE FOR TRANSPORT TIME STEP  1801 IN FLOW TIME STEP     1 STRESS PERIOD     3
      4 TOTAL ITERATIONS
     1 CALLS TO GCG PACKAGE FOR TRANSPORT TIME STEP  1802 IN FLOW TIME STEP     1 STRESS PERIOD     3
      4 TOTAL ITERATIONS
     1 CALLS TO GCG PACKAGE FOR TRANSPORT TIME STEP  1803 IN FLOW TIME STEP     1 STRESS PERIOD     3
      4 TOTAL ITERATIONS
     1 CALLS TO GCG PACKAGE FOR TRANSPORT TIME STEP  1804 IN FLOW TIME STEP     1 STRESS PERIOD     3
      4 TOTAL ITERATIONS
     1 CALLS TO GCG PACKAGE FOR TRANSPORT TIME STEP  1805 IN FLOW TIME STEP     1 STRESS PERIOD     3
      4 TOTAL ITERATIONS
     1 CALLS TO GCG PACKAGE FOR TRANSPORT TIME STEP  1806 IN FLOW TIME STEP     1 STRESS PERIOD     3
      4 TOTAL ITERATIONS
     1 CALLS TO GCG PACKAGE FOR TRANSPORT TIME STEP  1807 IN FLOW TIME STEP     1 STRESS PERIOD     3
      4 TOTAL ITERATIONS
     1 CALLS TO GCG PACKAGE FOR TRANSPORT TIME STEP  1808 IN FLOW TIME STEP     1 STRESS PERIOD     3
      4 TOTAL ITERATIONS
     1 CALLS TO GCG PACKAGE FOR TRANSPORT TIME STEP  1809 IN FLOW TIME STEP     1 STRESS PERIOD     3
      4 TOTAL ITERATIONS
     1 CALLS TO GCG PACKAGE FOR TRANSPORT TIME STEP  1810 IN FLOW TIME STEP     1 STRESS PERIOD     3
      4 TOTAL ITERATIONS
     1 CALLS TO GCG PACKAGE FOR TRANSPORT TIME STEP  1811 IN FLOW TIME STEP     1 STRESS PERIOD     3
      4 TOTAL ITERATIONS
     1 CALLS TO GCG PACKAGE FOR TRANSPORT TIME STEP  1812 IN FLOW TIME STEP     1 STRESS PERIOD     3
      4 TOTAL ITERATIONS
     1 CALLS TO GCG PACKAGE FOR TRANSPORT TIME STEP  1813 IN FLOW TIME STEP     1 STRESS PERIOD     3
      4 TOTAL ITERATIONS
     1 CALLS TO GCG PACKAGE FOR TRANSPORT TIME STEP  1814 IN FLOW TIME STEP     1 STRESS PERIOD     3
      4 TOTAL ITERATIONS
     1 CALLS TO GCG PACKAGE FOR TRANSPORT TIME STEP  1815 IN FLOW TIME STEP     1 STRESS PERIOD     3
      4 TOTAL ITERATIONS
     1 CALLS TO GCG PACKAGE FOR TRANSPORT TIME STEP  1816 IN FLOW TIME STEP     1 STRESS PERIOD     3
      4 TOTAL ITERATIONS
     1 CALLS TO GCG PACKAGE FOR TRANSPORT TIME STEP  1817 IN FLOW TIME STEP     1 STRESS PERIOD     3
      4 TOTAL ITERATIONS
     1 CALLS TO GCG PACKAGE FOR TRANSPORT TIME STEP  1818 IN FLOW TIME STEP     1 STRESS PERIOD     3
      4 TOTAL ITERATIONS
     1 CALLS TO GCG PACKAGE FOR TRANSPORT TIME STEP  1819 IN FLOW TIME STEP     1 STRESS PERIOD     3
      4 TOTAL ITERATIONS
     1 CALLS TO GCG PACKAGE FOR TRANSPORT TIME STEP  1820 IN FLOW TIME STEP     1 STRESS PERIOD     3
      4 TOTAL ITERATIONS
     1 CALLS TO GCG PACKAGE FOR TRANSPORT TIME STEP  1821 IN FLOW TIME STEP     1 STRESS PERIOD     3
      4 TOTAL ITERATIONS
     1 CALLS TO GCG PACKAGE FOR TRANSPORT TIME STEP  1822 IN FLOW TIME STEP     1 STRESS PERIOD     3
      4 TOTAL ITERATIONS
     1 CALLS TO GCG PACKAGE FOR TRANSPORT TIME STEP  1823 IN FLOW TIME STEP     1 STRESS PERIOD     3
      4 TOTAL ITERATIONS
     1 CALLS TO GCG PACKAGE FOR TRANSPORT TIME STEP  1824 IN FLOW TIME STEP     1 STRESS PERIOD     3
      4 TOTAL ITERATIONS
     1 CALLS TO GCG PACKAGE FOR TRANSPORT TIME STEP  1825 IN FLOW TIME STEP     1 STRESS PERIOD     3
      4 TOTAL ITERATIONS
     1 CALLS TO GCG PACKAGE FOR TRANSPORT TIME STEP  1826 IN FLOW TIME STEP     1 STRESS PERIOD     3
      4 TOTAL ITERATIONS
     1 CALLS TO GCG PACKAGE FOR TRANSPORT TIME STEP  1827 IN FLOW TIME STEP     1 STRESS PERIOD     3
      4 TOTAL ITERATIONS
     1 CALLS TO GCG PACKAGE FOR TRANSPORT TIME STEP  1828 IN FLOW TIME STEP     1 STRESS PERIOD     3
      4 TOTAL ITERATIONS
     1 CALLS TO GCG PACKAGE FOR TRANSPORT TIME STEP  1829 IN FLOW TIME STEP     1 STRESS PERIOD     3
      4 TOTAL ITERATIONS
     1 CALLS TO GCG PACKAGE FOR TRANSPORT TIME STEP  1830 IN FLOW TIME STEP     1 STRESS PERIOD     3
      4 TOTAL ITERATIONS
     1 CALLS TO GCG PACKAGE FOR TRANSPORT TIME STEP  1831 IN FLOW TIME STEP     1 STRESS PERIOD     3
      4 TOTAL ITERATIONS
     1 CALLS TO GCG PACKAGE FOR TRANSPORT TIME STEP  1832 IN FLOW TIME STEP     1 STRESS PERIOD     3
      4 TOTAL ITERATIONS
     1 CALLS TO GCG PACKAGE FOR TRANSPORT TIME STEP  1833 IN FLOW TIME STEP     1 STRESS PERIOD     3
      4 TOTAL ITERATIONS
     1 CALLS TO GCG PACKAGE FOR TRANSPORT TIME STEP  1834 IN FLOW TIME STEP     1 STRESS PERIOD     3
      4 TOTAL ITERATIONS
     1 CALLS TO GCG PACKAGE FOR TRANSPORT TIME STEP  1835 IN FLOW TIME STEP     1 STRESS PERIOD     3
      4 TOTAL ITERATIONS
     1 CALLS TO GCG PACKAGE FOR TRANSPORT TIME STEP  1836 IN FLOW TIME STEP     1 STRESS PERIOD     3
      4 TOTAL ITERATIONS
     1 CALLS TO GCG PACKAGE FOR TRANSPORT TIME STEP  1837 IN FLOW TIME STEP     1 STRESS PERIOD     3
      4 TOTAL ITERATIONS
     1 CALLS TO GCG PACKAGE FOR TRANSPORT TIME STEP  1838 IN FLOW TIME STEP     1 STRESS PERIOD     3
      4 TOTAL ITERATIONS
     1 CALLS TO GCG PACKAGE FOR TRANSPORT TIME STEP  1839 IN FLOW TIME STEP     1 STRESS PERIOD     3
      3 TOTAL ITERATIONS



 >>>>>>>>>>>>>>>>>>>>>>>>>>>>>>>>>>>>>>>>>>>>>>>>>>>>>>>FOR COMPONENT NO. 01<<<<<<<<<<<<<<<<<<<<<<<<<<<<<<<<<<<<<<<<<<<<<<<<<<<<<<<


                                            -------------------------------------------
                                                      TRANSPORT STEP NO. 1839
                                            -------------------------------------------

 TOTAL ELAPSED TIME SINCE BEGINNING OF SIMULATION =   64.78000    D   
 .....................................................................

                     CUMULATIVE MASS BUDGETS AT END OF TRANSPORT STEP 1839, TIME STEP    1, STRESS PERIOD    3
                     -----------------------------------------------------------------------------------------

                                                             IN                           OUT
                                                      ----------------             ----------------
                               CONSTANT CONCENTRATION:    0.000000                    0.000000    
                                        CONSTANT HEAD:    0.000000                  -0.3393267E-01
                                                WELLS:   0.3997760E-01                0.000000    
                               MASS STOR (FLOW MODEL):    0.000000                    0.000000    
                                MASS STORAGE (SOLUTE):   0.1967092E-04              -0.6065525E-02
                            ---------------------------------------------------------------------------
                                              [TOTAL]:   0.3999727E-01 KG           -0.3999819E-01 KG  

                                                          NET (IN - OUT):  -0.9238720E-06
                                                   DISCREPANCY (PERCENT):  -0.2309811E-02
     1 CALLS TO GCG PACKAGE FOR TRANSPORT TIME STEP  1840 IN FLOW TIME STEP     1 STRESS PERIOD     3
      4 TOTAL ITERATIONS
     1 CALLS TO GCG PACKAGE FOR TRANSPORT TIME STEP  1841 IN FLOW TIME STEP     1 STRESS PERIOD     3
      4 TOTAL ITERATIONS
     1 CALLS TO GCG PACKAGE FOR TRANSPORT TIME STEP  1842 IN FLOW TIME STEP     1 STRESS PERIOD     3
      4 TOTAL ITERATIONS
     1 CALLS TO GCG PACKAGE FOR TRANSPORT TIME STEP  1843 IN FLOW TIME STEP     1 STRESS PERIOD     3
      4 TOTAL ITERATIONS
     1 CALLS TO GCG PACKAGE FOR TRANSPORT TIME STEP  1844 IN FLOW TIME STEP     1 STRESS PERIOD     3
      4 TOTAL ITERATIONS
     1 CALLS TO GCG PACKAGE FOR TRANSPORT TIME STEP  1845 IN FLOW TIME STEP     1 STRESS PERIOD     3
      4 TOTAL ITERATIONS
     1 CALLS TO GCG PACKAGE FOR TRANSPORT TIME STEP  1846 IN FLOW TIME STEP     1 STRESS PERIOD     3
      4 TOTAL ITERATIONS
     1 CALLS TO GCG PACKAGE FOR TRANSPORT TIME STEP  1847 IN FLOW TIME STEP     1 STRESS PERIOD     3
      4 TOTAL ITERATIONS
     1 CALLS TO GCG PACKAGE FOR TRANSPORT TIME STEP  1848 IN FLOW TIME STEP     1 STRESS PERIOD     3
      4 TOTAL ITERATIONS
     1 CALLS TO GCG PACKAGE FOR TRANSPORT TIME STEP  1849 IN FLOW TIME STEP     1 STRESS PERIOD     3
      4 TOTAL ITERATIONS
     1 CALLS TO GCG PACKAGE FOR TRANSPORT TIME STEP  1850 IN FLOW TIME STEP     1 STRESS PERIOD     3
      4 TOTAL ITERATIONS
     1 CALLS TO GCG PACKAGE FOR TRANSPORT TIME STEP  1851 IN FLOW TIME STEP     1 STRESS PERIOD     3
      4 TOTAL ITERATIONS
     1 CALLS TO GCG PACKAGE FOR TRANSPORT TIME STEP  1852 IN FLOW TIME STEP     1 STRESS PERIOD     3
      4 TOTAL ITERATIONS
     1 CALLS TO GCG PACKAGE FOR TRANSPORT TIME STEP  1853 IN FLOW TIME STEP     1 STRESS PERIOD     3
      4 TOTAL ITERATIONS
     1 CALLS TO GCG PACKAGE FOR TRANSPORT TIME STEP  1854 IN FLOW TIME STEP     1 STRESS PERIOD     3
      4 TOTAL ITERATIONS
     1 CALLS TO GCG PACKAGE FOR TRANSPORT TIME STEP  1855 IN FLOW TIME STEP     1 STRESS PERIOD     3
      4 TOTAL ITERATIONS
     1 CALLS TO GCG PACKAGE FOR TRANSPORT TIME STEP  1856 IN FLOW TIME STEP     1 STRESS PERIOD     3
      4 TOTAL ITERATIONS
     1 CALLS TO GCG PACKAGE FOR TRANSPORT TIME STEP  1857 IN FLOW TIME STEP     1 STRESS PERIOD     3
      4 TOTAL ITERATIONS
     1 CALLS TO GCG PACKAGE FOR TRANSPORT TIME STEP  1858 IN FLOW TIME STEP     1 STRESS PERIOD     3
      4 TOTAL ITERATIONS
     1 CALLS TO GCG PACKAGE FOR TRANSPORT TIME STEP  1859 IN FLOW TIME STEP     1 STRESS PERIOD     3
      4 TOTAL ITERATIONS
     1 CALLS TO GCG PACKAGE FOR TRANSPORT TIME STEP  1860 IN FLOW TIME STEP     1 STRESS PERIOD     3
      4 TOTAL ITERATIONS
     1 CALLS TO GCG PACKAGE FOR TRANSPORT TIME STEP  1861 IN FLOW TIME STEP     1 STRESS PERIOD     3
      4 TOTAL ITERATIONS
     1 CALLS TO GCG PACKAGE FOR TRANSPORT TIME STEP  1862 IN FLOW TIME STEP     1 STRESS PERIOD     3
      4 TOTAL ITERATIONS
     1 CALLS TO GCG PACKAGE FOR TRANSPORT TIME STEP  1863 IN FLOW TIME STEP     1 STRESS PERIOD     3
      4 TOTAL ITERATIONS
     1 CALLS TO GCG PACKAGE FOR TRANSPORT TIME STEP  1864 IN FLOW TIME STEP     1 STRESS PERIOD     3
      4 TOTAL ITERATIONS
     1 CALLS TO GCG PACKAGE FOR TRANSPORT TIME STEP  1865 IN FLOW TIME STEP     1 STRESS PERIOD     3
      4 TOTAL ITERATIONS
     1 CALLS TO GCG PACKAGE FOR TRANSPORT TIME STEP  1866 IN FLOW TIME STEP     1 STRESS PERIOD     3
      4 TOTAL ITERATIONS
     1 CALLS TO GCG PACKAGE FOR TRANSPORT TIME STEP  1867 IN FLOW TIME STEP     1 STRESS PERIOD     3
      4 TOTAL ITERATIONS
     1 CALLS TO GCG PACKAGE FOR TRANSPORT TIME STEP  1868 IN FLOW TIME STEP     1 STRESS PERIOD     3
      4 TOTAL ITERATIONS
     1 CALLS TO GCG PACKAGE FOR TRANSPORT TIME STEP  1869 IN FLOW TIME STEP     1 STRESS PERIOD     3
      4 TOTAL ITERATIONS
     1 CALLS TO GCG PACKAGE FOR TRANSPORT TIME STEP  1870 IN FLOW TIME STEP     1 STRESS PERIOD     3
      4 TOTAL ITERATIONS
     1 CALLS TO GCG PACKAGE FOR TRANSPORT TIME STEP  1871 IN FLOW TIME STEP     1 STRESS PERIOD     3
      4 TOTAL ITERATIONS
     1 CALLS TO GCG PACKAGE FOR TRANSPORT TIME STEP  1872 IN FLOW TIME STEP     1 STRESS PERIOD     3
      4 TOTAL ITERATIONS
     1 CALLS TO GCG PACKAGE FOR TRANSPORT TIME STEP  1873 IN FLOW TIME STEP     1 STRESS PERIOD     3
      4 TOTAL ITERATIONS
     1 CALLS TO GCG PACKAGE FOR TRANSPORT TIME STEP  1874 IN FLOW TIME STEP     1 STRESS PERIOD     3
      4 TOTAL ITERATIONS
     1 CALLS TO GCG PACKAGE FOR TRANSPORT TIME STEP  1875 IN FLOW TIME STEP     1 STRESS PERIOD     3
      4 TOTAL ITERATIONS
     1 CALLS TO GCG PACKAGE FOR TRANSPORT TIME STEP  1876 IN FLOW TIME STEP     1 STRESS PERIOD     3
      4 TOTAL ITERATIONS
     1 CALLS TO GCG PACKAGE FOR TRANSPORT TIME STEP  1877 IN FLOW TIME STEP     1 STRESS PERIOD     3
      4 TOTAL ITERATIONS
     1 CALLS TO GCG PACKAGE FOR TRANSPORT TIME STEP  1878 IN FLOW TIME STEP     1 STRESS PERIOD     3
      4 TOTAL ITERATIONS
     1 CALLS TO GCG PACKAGE FOR TRANSPORT TIME STEP  1879 IN FLOW TIME STEP     1 STRESS PERIOD     3
      4 TOTAL ITERATIONS
     1 CALLS TO GCG PACKAGE FOR TRANSPORT TIME STEP  1880 IN FLOW TIME STEP     1 STRESS PERIOD     3
      4 TOTAL ITERATIONS
     1 CALLS TO GCG PACKAGE FOR TRANSPORT TIME STEP  1881 IN FLOW TIME STEP     1 STRESS PERIOD     3
      4 TOTAL ITERATIONS
     1 CALLS TO GCG PACKAGE FOR TRANSPORT TIME STEP  1882 IN FLOW TIME STEP     1 STRESS PERIOD     3
      4 TOTAL ITERATIONS
     1 CALLS TO GCG PACKAGE FOR TRANSPORT TIME STEP  1883 IN FLOW TIME STEP     1 STRESS PERIOD     3
      4 TOTAL ITERATIONS
     1 CALLS TO GCG PACKAGE FOR TRANSPORT TIME STEP  1884 IN FLOW TIME STEP     1 STRESS PERIOD     3
      4 TOTAL ITERATIONS
     1 CALLS TO GCG PACKAGE FOR TRANSPORT TIME STEP  1885 IN FLOW TIME STEP     1 STRESS PERIOD     3
      3 TOTAL ITERATIONS



 >>>>>>>>>>>>>>>>>>>>>>>>>>>>>>>>>>>>>>>>>>>>>>>>>>>>>>>FOR COMPONENT NO. 01<<<<<<<<<<<<<<<<<<<<<<<<<<<<<<<<<<<<<<<<<<<<<<<<<<<<<<<


                                            -------------------------------------------
                                                      TRANSPORT STEP NO. 1885
                                            -------------------------------------------

 TOTAL ELAPSED TIME SINCE BEGINNING OF SIMULATION =   65.60000    D   
 .....................................................................

                     CUMULATIVE MASS BUDGETS AT END OF TRANSPORT STEP 1885, TIME STEP    1, STRESS PERIOD    3
                     -----------------------------------------------------------------------------------------

                                                             IN                           OUT
                                                      ----------------             ----------------
                               CONSTANT CONCENTRATION:    0.000000                    0.000000    
                                        CONSTANT HEAD:    0.000000                  -0.3443774E-01
                                                WELLS:   0.4048368E-01                0.000000    
                               MASS STOR (FLOW MODEL):    0.000000                    0.000000    
                                MASS STORAGE (SOLUTE):   0.1969797E-04              -0.6066587E-02
                            ---------------------------------------------------------------------------
                                              [TOTAL]:   0.4050338E-01 KG           -0.4050433E-01 KG  

                                                          NET (IN - OUT):  -0.9462237E-06
                                                   DISCREPANCY (PERCENT):  -0.2336133E-02
     1 CALLS TO GCG PACKAGE FOR TRANSPORT TIME STEP  1886 IN FLOW TIME STEP     1 STRESS PERIOD     3
      4 TOTAL ITERATIONS
     1 CALLS TO GCG PACKAGE FOR TRANSPORT TIME STEP  1887 IN FLOW TIME STEP     1 STRESS PERIOD     3
      4 TOTAL ITERATIONS
     1 CALLS TO GCG PACKAGE FOR TRANSPORT TIME STEP  1888 IN FLOW TIME STEP     1 STRESS PERIOD     3
      4 TOTAL ITERATIONS
     1 CALLS TO GCG PACKAGE FOR TRANSPORT TIME STEP  1889 IN FLOW TIME STEP     1 STRESS PERIOD     3
      4 TOTAL ITERATIONS
     1 CALLS TO GCG PACKAGE FOR TRANSPORT TIME STEP  1890 IN FLOW TIME STEP     1 STRESS PERIOD     3
      4 TOTAL ITERATIONS
     1 CALLS TO GCG PACKAGE FOR TRANSPORT TIME STEP  1891 IN FLOW TIME STEP     1 STRESS PERIOD     3
      4 TOTAL ITERATIONS
     1 CALLS TO GCG PACKAGE FOR TRANSPORT TIME STEP  1892 IN FLOW TIME STEP     1 STRESS PERIOD     3
      4 TOTAL ITERATIONS
     1 CALLS TO GCG PACKAGE FOR TRANSPORT TIME STEP  1893 IN FLOW TIME STEP     1 STRESS PERIOD     3
      4 TOTAL ITERATIONS
     1 CALLS TO GCG PACKAGE FOR TRANSPORT TIME STEP  1894 IN FLOW TIME STEP     1 STRESS PERIOD     3
      4 TOTAL ITERATIONS
     1 CALLS TO GCG PACKAGE FOR TRANSPORT TIME STEP  1895 IN FLOW TIME STEP     1 STRESS PERIOD     3
      4 TOTAL ITERATIONS
     1 CALLS TO GCG PACKAGE FOR TRANSPORT TIME STEP  1896 IN FLOW TIME STEP     1 STRESS PERIOD     3
      4 TOTAL ITERATIONS
     1 CALLS TO GCG PACKAGE FOR TRANSPORT TIME STEP  1897 IN FLOW TIME STEP     1 STRESS PERIOD     3
      4 TOTAL ITERATIONS
     1 CALLS TO GCG PACKAGE FOR TRANSPORT TIME STEP  1898 IN FLOW TIME STEP     1 STRESS PERIOD     3
      4 TOTAL ITERATIONS
     1 CALLS TO GCG PACKAGE FOR TRANSPORT TIME STEP  1899 IN FLOW TIME STEP     1 STRESS PERIOD     3
      4 TOTAL ITERATIONS
     1 CALLS TO GCG PACKAGE FOR TRANSPORT TIME STEP  1900 IN FLOW TIME STEP     1 STRESS PERIOD     3
      4 TOTAL ITERATIONS
     1 CALLS TO GCG PACKAGE FOR TRANSPORT TIME STEP  1901 IN FLOW TIME STEP     1 STRESS PERIOD     3
      4 TOTAL ITERATIONS
     1 CALLS TO GCG PACKAGE FOR TRANSPORT TIME STEP  1902 IN FLOW TIME STEP     1 STRESS PERIOD     3
      4 TOTAL ITERATIONS
     1 CALLS TO GCG PACKAGE FOR TRANSPORT TIME STEP  1903 IN FLOW TIME STEP     1 STRESS PERIOD     3
      4 TOTAL ITERATIONS
     1 CALLS TO GCG PACKAGE FOR TRANSPORT TIME STEP  1904 IN FLOW TIME STEP     1 STRESS PERIOD     3
      4 TOTAL ITERATIONS
     1 CALLS TO GCG PACKAGE FOR TRANSPORT TIME STEP  1905 IN FLOW TIME STEP     1 STRESS PERIOD     3
      4 TOTAL ITERATIONS
     1 CALLS TO GCG PACKAGE FOR TRANSPORT TIME STEP  1906 IN FLOW TIME STEP     1 STRESS PERIOD     3
      4 TOTAL ITERATIONS
     1 CALLS TO GCG PACKAGE FOR TRANSPORT TIME STEP  1907 IN FLOW TIME STEP     1 STRESS PERIOD     3
      4 TOTAL ITERATIONS
     1 CALLS TO GCG PACKAGE FOR TRANSPORT TIME STEP  1908 IN FLOW TIME STEP     1 STRESS PERIOD     3
      4 TOTAL ITERATIONS
     1 CALLS TO GCG PACKAGE FOR TRANSPORT TIME STEP  1909 IN FLOW TIME STEP     1 STRESS PERIOD     3
      4 TOTAL ITERATIONS
     1 CALLS TO GCG PACKAGE FOR TRANSPORT TIME STEP  1910 IN FLOW TIME STEP     1 STRESS PERIOD     3
      4 TOTAL ITERATIONS
     1 CALLS TO GCG PACKAGE FOR TRANSPORT TIME STEP  1911 IN FLOW TIME STEP     1 STRESS PERIOD     3
      4 TOTAL ITERATIONS
     1 CALLS TO GCG PACKAGE FOR TRANSPORT TIME STEP  1912 IN FLOW TIME STEP     1 STRESS PERIOD     3
      4 TOTAL ITERATIONS
     1 CALLS TO GCG PACKAGE FOR TRANSPORT TIME STEP  1913 IN FLOW TIME STEP     1 STRESS PERIOD     3
      4 TOTAL ITERATIONS
     1 CALLS TO GCG PACKAGE FOR TRANSPORT TIME STEP  1914 IN FLOW TIME STEP     1 STRESS PERIOD     3
      4 TOTAL ITERATIONS
     1 CALLS TO GCG PACKAGE FOR TRANSPORT TIME STEP  1915 IN FLOW TIME STEP     1 STRESS PERIOD     3
      4 TOTAL ITERATIONS
     1 CALLS TO GCG PACKAGE FOR TRANSPORT TIME STEP  1916 IN FLOW TIME STEP     1 STRESS PERIOD     3
      4 TOTAL ITERATIONS
     1 CALLS TO GCG PACKAGE FOR TRANSPORT TIME STEP  1917 IN FLOW TIME STEP     1 STRESS PERIOD     3
      4 TOTAL ITERATIONS
     1 CALLS TO GCG PACKAGE FOR TRANSPORT TIME STEP  1918 IN FLOW TIME STEP     1 STRESS PERIOD     3
      4 TOTAL ITERATIONS
     1 CALLS TO GCG PACKAGE FOR TRANSPORT TIME STEP  1919 IN FLOW TIME STEP     1 STRESS PERIOD     3
      4 TOTAL ITERATIONS
     1 CALLS TO GCG PACKAGE FOR TRANSPORT TIME STEP  1920 IN FLOW TIME STEP     1 STRESS PERIOD     3
      4 TOTAL ITERATIONS
     1 CALLS TO GCG PACKAGE FOR TRANSPORT TIME STEP  1921 IN FLOW TIME STEP     1 STRESS PERIOD     3
      4 TOTAL ITERATIONS
     1 CALLS TO GCG PACKAGE FOR TRANSPORT TIME STEP  1922 IN FLOW TIME STEP     1 STRESS PERIOD     3
      4 TOTAL ITERATIONS
     1 CALLS TO GCG PACKAGE FOR TRANSPORT TIME STEP  1923 IN FLOW TIME STEP     1 STRESS PERIOD     3
      4 TOTAL ITERATIONS
     1 CALLS TO GCG PACKAGE FOR TRANSPORT TIME STEP  1924 IN FLOW TIME STEP     1 STRESS PERIOD     3
      4 TOTAL ITERATIONS
     1 CALLS TO GCG PACKAGE FOR TRANSPORT TIME STEP  1925 IN FLOW TIME STEP     1 STRESS PERIOD     3
      4 TOTAL ITERATIONS
     1 CALLS TO GCG PACKAGE FOR TRANSPORT TIME STEP  1926 IN FLOW TIME STEP     1 STRESS PERIOD     3
      4 TOTAL ITERATIONS
     1 CALLS TO GCG PACKAGE FOR TRANSPORT TIME STEP  1927 IN FLOW TIME STEP     1 STRESS PERIOD     3
      4 TOTAL ITERATIONS
     1 CALLS TO GCG PACKAGE FOR TRANSPORT TIME STEP  1928 IN FLOW TIME STEP     1 STRESS PERIOD     3
      4 TOTAL ITERATIONS
     1 CALLS TO GCG PACKAGE FOR TRANSPORT TIME STEP  1929 IN FLOW TIME STEP     1 STRESS PERIOD     3
      4 TOTAL ITERATIONS
     1 CALLS TO GCG PACKAGE FOR TRANSPORT TIME STEP  1930 IN FLOW TIME STEP     1 STRESS PERIOD     3
      4 TOTAL ITERATIONS
     1 CALLS TO GCG PACKAGE FOR TRANSPORT TIME STEP  1931 IN FLOW TIME STEP     1 STRESS PERIOD     3
      3 TOTAL ITERATIONS



 >>>>>>>>>>>>>>>>>>>>>>>>>>>>>>>>>>>>>>>>>>>>>>>>>>>>>>>FOR COMPONENT NO. 01<<<<<<<<<<<<<<<<<<<<<<<<<<<<<<<<<<<<<<<<<<<<<<<<<<<<<<<


                                            -------------------------------------------
                                                      TRANSPORT STEP NO. 1931
                                            -------------------------------------------

 TOTAL ELAPSED TIME SINCE BEGINNING OF SIMULATION =   66.42000    D   
 .....................................................................

                     CUMULATIVE MASS BUDGETS AT END OF TRANSPORT STEP 1931, TIME STEP    1, STRESS PERIOD    3
                     -----------------------------------------------------------------------------------------

                                                             IN                           OUT
                                                      ----------------             ----------------
                               CONSTANT CONCENTRATION:    0.000000                    0.000000    
                                        CONSTANT HEAD:    0.000000                  -0.3494292E-01
                                                WELLS:   0.4098977E-01                0.000000    
                               MASS STOR (FLOW MODEL):    0.000000                    0.000000    
                                MASS STORAGE (SOLUTE):   0.1972509E-04              -0.6067584E-02
                            ---------------------------------------------------------------------------
                                              [TOTAL]:   0.4100949E-01 KG           -0.4101051E-01 KG  

                                                          NET (IN - OUT):  -0.1017004E-05
                                                   DISCREPANCY (PERCENT):  -0.2479893E-02
     1 CALLS TO GCG PACKAGE FOR TRANSPORT TIME STEP  1932 IN FLOW TIME STEP     1 STRESS PERIOD     3
      4 TOTAL ITERATIONS
     1 CALLS TO GCG PACKAGE FOR TRANSPORT TIME STEP  1933 IN FLOW TIME STEP     1 STRESS PERIOD     3
      4 TOTAL ITERATIONS
     1 CALLS TO GCG PACKAGE FOR TRANSPORT TIME STEP  1934 IN FLOW TIME STEP     1 STRESS PERIOD     3
      4 TOTAL ITERATIONS
     1 CALLS TO GCG PACKAGE FOR TRANSPORT TIME STEP  1935 IN FLOW TIME STEP     1 STRESS PERIOD     3
      4 TOTAL ITERATIONS
     1 CALLS TO GCG PACKAGE FOR TRANSPORT TIME STEP  1936 IN FLOW TIME STEP     1 STRESS PERIOD     3
      4 TOTAL ITERATIONS
     1 CALLS TO GCG PACKAGE FOR TRANSPORT TIME STEP  1937 IN FLOW TIME STEP     1 STRESS PERIOD     3
      4 TOTAL ITERATIONS
     1 CALLS TO GCG PACKAGE FOR TRANSPORT TIME STEP  1938 IN FLOW TIME STEP     1 STRESS PERIOD     3
      4 TOTAL ITERATIONS
     1 CALLS TO GCG PACKAGE FOR TRANSPORT TIME STEP  1939 IN FLOW TIME STEP     1 STRESS PERIOD     3
      4 TOTAL ITERATIONS
     1 CALLS TO GCG PACKAGE FOR TRANSPORT TIME STEP  1940 IN FLOW TIME STEP     1 STRESS PERIOD     3
      4 TOTAL ITERATIONS
     1 CALLS TO GCG PACKAGE FOR TRANSPORT TIME STEP  1941 IN FLOW TIME STEP     1 STRESS PERIOD     3
      4 TOTAL ITERATIONS
     1 CALLS TO GCG PACKAGE FOR TRANSPORT TIME STEP  1942 IN FLOW TIME STEP     1 STRESS PERIOD     3
      4 TOTAL ITERATIONS
     1 CALLS TO GCG PACKAGE FOR TRANSPORT TIME STEP  1943 IN FLOW TIME STEP     1 STRESS PERIOD     3
      4 TOTAL ITERATIONS
     1 CALLS TO GCG PACKAGE FOR TRANSPORT TIME STEP  1944 IN FLOW TIME STEP     1 STRESS PERIOD     3
      4 TOTAL ITERATIONS
     1 CALLS TO GCG PACKAGE FOR TRANSPORT TIME STEP  1945 IN FLOW TIME STEP     1 STRESS PERIOD     3
      4 TOTAL ITERATIONS
     1 CALLS TO GCG PACKAGE FOR TRANSPORT TIME STEP  1946 IN FLOW TIME STEP     1 STRESS PERIOD     3
      4 TOTAL ITERATIONS
     1 CALLS TO GCG PACKAGE FOR TRANSPORT TIME STEP  1947 IN FLOW TIME STEP     1 STRESS PERIOD     3
      4 TOTAL ITERATIONS
     1 CALLS TO GCG PACKAGE FOR TRANSPORT TIME STEP  1948 IN FLOW TIME STEP     1 STRESS PERIOD     3
      4 TOTAL ITERATIONS
     1 CALLS TO GCG PACKAGE FOR TRANSPORT TIME STEP  1949 IN FLOW TIME STEP     1 STRESS PERIOD     3
      4 TOTAL ITERATIONS
     1 CALLS TO GCG PACKAGE FOR TRANSPORT TIME STEP  1950 IN FLOW TIME STEP     1 STRESS PERIOD     3
      4 TOTAL ITERATIONS
     1 CALLS TO GCG PACKAGE FOR TRANSPORT TIME STEP  1951 IN FLOW TIME STEP     1 STRESS PERIOD     3
      4 TOTAL ITERATIONS
     1 CALLS TO GCG PACKAGE FOR TRANSPORT TIME STEP  1952 IN FLOW TIME STEP     1 STRESS PERIOD     3
      4 TOTAL ITERATIONS
     1 CALLS TO GCG PACKAGE FOR TRANSPORT TIME STEP  1953 IN FLOW TIME STEP     1 STRESS PERIOD     3
      4 TOTAL ITERATIONS
     1 CALLS TO GCG PACKAGE FOR TRANSPORT TIME STEP  1954 IN FLOW TIME STEP     1 STRESS PERIOD     3
      4 TOTAL ITERATIONS
     1 CALLS TO GCG PACKAGE FOR TRANSPORT TIME STEP  1955 IN FLOW TIME STEP     1 STRESS PERIOD     3
      4 TOTAL ITERATIONS
     1 CALLS TO GCG PACKAGE FOR TRANSPORT TIME STEP  1956 IN FLOW TIME STEP     1 STRESS PERIOD     3
      4 TOTAL ITERATIONS
     1 CALLS TO GCG PACKAGE FOR TRANSPORT TIME STEP  1957 IN FLOW TIME STEP     1 STRESS PERIOD     3
      4 TOTAL ITERATIONS
     1 CALLS TO GCG PACKAGE FOR TRANSPORT TIME STEP  1958 IN FLOW TIME STEP     1 STRESS PERIOD     3
      4 TOTAL ITERATIONS
     1 CALLS TO GCG PACKAGE FOR TRANSPORT TIME STEP  1959 IN FLOW TIME STEP     1 STRESS PERIOD     3
      4 TOTAL ITERATIONS
     1 CALLS TO GCG PACKAGE FOR TRANSPORT TIME STEP  1960 IN FLOW TIME STEP     1 STRESS PERIOD     3
      4 TOTAL ITERATIONS
     1 CALLS TO GCG PACKAGE FOR TRANSPORT TIME STEP  1961 IN FLOW TIME STEP     1 STRESS PERIOD     3
      4 TOTAL ITERATIONS
     1 CALLS TO GCG PACKAGE FOR TRANSPORT TIME STEP  1962 IN FLOW TIME STEP     1 STRESS PERIOD     3
      4 TOTAL ITERATIONS
     1 CALLS TO GCG PACKAGE FOR TRANSPORT TIME STEP  1963 IN FLOW TIME STEP     1 STRESS PERIOD     3
      4 TOTAL ITERATIONS
     1 CALLS TO GCG PACKAGE FOR TRANSPORT TIME STEP  1964 IN FLOW TIME STEP     1 STRESS PERIOD     3
      4 TOTAL ITERATIONS
     1 CALLS TO GCG PACKAGE FOR TRANSPORT TIME STEP  1965 IN FLOW TIME STEP     1 STRESS PERIOD     3
      4 TOTAL ITERATIONS
     1 CALLS TO GCG PACKAGE FOR TRANSPORT TIME STEP  1966 IN FLOW TIME STEP     1 STRESS PERIOD     3
      4 TOTAL ITERATIONS
     1 CALLS TO GCG PACKAGE FOR TRANSPORT TIME STEP  1967 IN FLOW TIME STEP     1 STRESS PERIOD     3
      4 TOTAL ITERATIONS
     1 CALLS TO GCG PACKAGE FOR TRANSPORT TIME STEP  1968 IN FLOW TIME STEP     1 STRESS PERIOD     3
      4 TOTAL ITERATIONS
     1 CALLS TO GCG PACKAGE FOR TRANSPORT TIME STEP  1969 IN FLOW TIME STEP     1 STRESS PERIOD     3
      4 TOTAL ITERATIONS
     1 CALLS TO GCG PACKAGE FOR TRANSPORT TIME STEP  1970 IN FLOW TIME STEP     1 STRESS PERIOD     3
      4 TOTAL ITERATIONS
     1 CALLS TO GCG PACKAGE FOR TRANSPORT TIME STEP  1971 IN FLOW TIME STEP     1 STRESS PERIOD     3
      4 TOTAL ITERATIONS
     1 CALLS TO GCG PACKAGE FOR TRANSPORT TIME STEP  1972 IN FLOW TIME STEP     1 STRESS PERIOD     3
      4 TOTAL ITERATIONS
     1 CALLS TO GCG PACKAGE FOR TRANSPORT TIME STEP  1973 IN FLOW TIME STEP     1 STRESS PERIOD     3
      4 TOTAL ITERATIONS
     1 CALLS TO GCG PACKAGE FOR TRANSPORT TIME STEP  1974 IN FLOW TIME STEP     1 STRESS PERIOD     3
      4 TOTAL ITERATIONS
     1 CALLS TO GCG PACKAGE FOR TRANSPORT TIME STEP  1975 IN FLOW TIME STEP     1 STRESS PERIOD     3
      4 TOTAL ITERATIONS
     1 CALLS TO GCG PACKAGE FOR TRANSPORT TIME STEP  1976 IN FLOW TIME STEP     1 STRESS PERIOD     3
      4 TOTAL ITERATIONS
     1 CALLS TO GCG PACKAGE FOR TRANSPORT TIME STEP  1977 IN FLOW TIME STEP     1 STRESS PERIOD     3
      3 TOTAL ITERATIONS



 >>>>>>>>>>>>>>>>>>>>>>>>>>>>>>>>>>>>>>>>>>>>>>>>>>>>>>>FOR COMPONENT NO. 01<<<<<<<<<<<<<<<<<<<<<<<<<<<<<<<<<<<<<<<<<<<<<<<<<<<<<<<


                                            -------------------------------------------
                                                      TRANSPORT STEP NO. 1977
                                            -------------------------------------------

 TOTAL ELAPSED TIME SINCE BEGINNING OF SIMULATION =   67.24000    D   
 .....................................................................

                     CUMULATIVE MASS BUDGETS AT END OF TRANSPORT STEP 1977, TIME STEP    1, STRESS PERIOD    3
                     -----------------------------------------------------------------------------------------

                                                             IN                           OUT
                                                      ----------------             ----------------
                               CONSTANT CONCENTRATION:    0.000000                    0.000000    
                                        CONSTANT HEAD:    0.000000                  -0.3544817E-01
                                                WELLS:   0.4149585E-01                0.000000    
                               MASS STOR (FLOW MODEL):    0.000000                    0.000000    
                                MASS STORAGE (SOLUTE):   0.1975234E-04              -0.6068520E-02
                            ---------------------------------------------------------------------------
                                              [TOTAL]:   0.4151560E-01 KG           -0.4151669E-01 KG  

                                                          NET (IN - OUT):  -0.1084059E-05
                                                   DISCREPANCY (PERCENT):  -0.2611175E-02
     1 CALLS TO GCG PACKAGE FOR TRANSPORT TIME STEP  1978 IN FLOW TIME STEP     1 STRESS PERIOD     3
      4 TOTAL ITERATIONS
     1 CALLS TO GCG PACKAGE FOR TRANSPORT TIME STEP  1979 IN FLOW TIME STEP     1 STRESS PERIOD     3
      4 TOTAL ITERATIONS
     1 CALLS TO GCG PACKAGE FOR TRANSPORT TIME STEP  1980 IN FLOW TIME STEP     1 STRESS PERIOD     3
      4 TOTAL ITERATIONS
     1 CALLS TO GCG PACKAGE FOR TRANSPORT TIME STEP  1981 IN FLOW TIME STEP     1 STRESS PERIOD     3
      4 TOTAL ITERATIONS
     1 CALLS TO GCG PACKAGE FOR TRANSPORT TIME STEP  1982 IN FLOW TIME STEP     1 STRESS PERIOD     3
      4 TOTAL ITERATIONS
     1 CALLS TO GCG PACKAGE FOR TRANSPORT TIME STEP  1983 IN FLOW TIME STEP     1 STRESS PERIOD     3
      4 TOTAL ITERATIONS
     1 CALLS TO GCG PACKAGE FOR TRANSPORT TIME STEP  1984 IN FLOW TIME STEP     1 STRESS PERIOD     3
      4 TOTAL ITERATIONS
     1 CALLS TO GCG PACKAGE FOR TRANSPORT TIME STEP  1985 IN FLOW TIME STEP     1 STRESS PERIOD     3
      4 TOTAL ITERATIONS
     1 CALLS TO GCG PACKAGE FOR TRANSPORT TIME STEP  1986 IN FLOW TIME STEP     1 STRESS PERIOD     3
      4 TOTAL ITERATIONS
     1 CALLS TO GCG PACKAGE FOR TRANSPORT TIME STEP  1987 IN FLOW TIME STEP     1 STRESS PERIOD     3
      4 TOTAL ITERATIONS
     1 CALLS TO GCG PACKAGE FOR TRANSPORT TIME STEP  1988 IN FLOW TIME STEP     1 STRESS PERIOD     3
      4 TOTAL ITERATIONS
     1 CALLS TO GCG PACKAGE FOR TRANSPORT TIME STEP  1989 IN FLOW TIME STEP     1 STRESS PERIOD     3
      4 TOTAL ITERATIONS
     1 CALLS TO GCG PACKAGE FOR TRANSPORT TIME STEP  1990 IN FLOW TIME STEP     1 STRESS PERIOD     3
      4 TOTAL ITERATIONS
     1 CALLS TO GCG PACKAGE FOR TRANSPORT TIME STEP  1991 IN FLOW TIME STEP     1 STRESS PERIOD     3
      4 TOTAL ITERATIONS
     1 CALLS TO GCG PACKAGE FOR TRANSPORT TIME STEP  1992 IN FLOW TIME STEP     1 STRESS PERIOD     3
      4 TOTAL ITERATIONS
     1 CALLS TO GCG PACKAGE FOR TRANSPORT TIME STEP  1993 IN FLOW TIME STEP     1 STRESS PERIOD     3
      4 TOTAL ITERATIONS
     1 CALLS TO GCG PACKAGE FOR TRANSPORT TIME STEP  1994 IN FLOW TIME STEP     1 STRESS PERIOD     3
      4 TOTAL ITERATIONS
     1 CALLS TO GCG PACKAGE FOR TRANSPORT TIME STEP  1995 IN FLOW TIME STEP     1 STRESS PERIOD     3
      4 TOTAL ITERATIONS
     1 CALLS TO GCG PACKAGE FOR TRANSPORT TIME STEP  1996 IN FLOW TIME STEP     1 STRESS PERIOD     3
      4 TOTAL ITERATIONS
     1 CALLS TO GCG PACKAGE FOR TRANSPORT TIME STEP  1997 IN FLOW TIME STEP     1 STRESS PERIOD     3
      4 TOTAL ITERATIONS
     1 CALLS TO GCG PACKAGE FOR TRANSPORT TIME STEP  1998 IN FLOW TIME STEP     1 STRESS PERIOD     3
      4 TOTAL ITERATIONS
  MAXIMUM CONCENTRATION CHANGES FOR EACH ITERATION:
  MAX. CHANGE LAYER,ROW,COL MAX. CHANGE LAYER,ROW,COL MAX. CHANGE LAYER,ROW,COL MAX. CHANGE LAYER,ROW,COL MAX. CHANGE LAYER,ROW,COL
 ------------------------------------------------------------------------------------------------------------------------------------
   0.2340     (  2,  1,120)  0.2243E-02 ( 40,  1,120)  0.1425E-04 ( 40,  1,120)  0.5364E-06 ( 11,  1, 15)
     1 CALLS TO GCG PACKAGE FOR TRANSPORT TIME STEP  1999 IN FLOW TIME STEP     1 STRESS PERIOD     3
      4 TOTAL ITERATIONS
     1 CALLS TO GCG PACKAGE FOR TRANSPORT TIME STEP  2000 IN FLOW TIME STEP     1 STRESS PERIOD     3
      4 TOTAL ITERATIONS
     1 CALLS TO GCG PACKAGE FOR TRANSPORT TIME STEP  2001 IN FLOW TIME STEP     1 STRESS PERIOD     3
      4 TOTAL ITERATIONS
     1 CALLS TO GCG PACKAGE FOR TRANSPORT TIME STEP  2002 IN FLOW TIME STEP     1 STRESS PERIOD     3
      4 TOTAL ITERATIONS
     1 CALLS TO GCG PACKAGE FOR TRANSPORT TIME STEP  2003 IN FLOW TIME STEP     1 STRESS PERIOD     3
      4 TOTAL ITERATIONS
     1 CALLS TO GCG PACKAGE FOR TRANSPORT TIME STEP  2004 IN FLOW TIME STEP     1 STRESS PERIOD     3
      4 TOTAL ITERATIONS
     1 CALLS TO GCG PACKAGE FOR TRANSPORT TIME STEP  2005 IN FLOW TIME STEP     1 STRESS PERIOD     3
      4 TOTAL ITERATIONS
     1 CALLS TO GCG PACKAGE FOR TRANSPORT TIME STEP  2006 IN FLOW TIME STEP     1 STRESS PERIOD     3
      4 TOTAL ITERATIONS
     1 CALLS TO GCG PACKAGE FOR TRANSPORT TIME STEP  2007 IN FLOW TIME STEP     1 STRESS PERIOD     3
      4 TOTAL ITERATIONS
     1 CALLS TO GCG PACKAGE FOR TRANSPORT TIME STEP  2008 IN FLOW TIME STEP     1 STRESS PERIOD     3
      4 TOTAL ITERATIONS
     1 CALLS TO GCG PACKAGE FOR TRANSPORT TIME STEP  2009 IN FLOW TIME STEP     1 STRESS PERIOD     3
      4 TOTAL ITERATIONS
     1 CALLS TO GCG PACKAGE FOR TRANSPORT TIME STEP  2010 IN FLOW TIME STEP     1 STRESS PERIOD     3
      4 TOTAL ITERATIONS
     1 CALLS TO GCG PACKAGE FOR TRANSPORT TIME STEP  2011 IN FLOW TIME STEP     1 STRESS PERIOD     3
      4 TOTAL ITERATIONS
     1 CALLS TO GCG PACKAGE FOR TRANSPORT TIME STEP  2012 IN FLOW TIME STEP     1 STRESS PERIOD     3
      4 TOTAL ITERATIONS
     1 CALLS TO GCG PACKAGE FOR TRANSPORT TIME STEP  2013 IN FLOW TIME STEP     1 STRESS PERIOD     3
      4 TOTAL ITERATIONS
     1 CALLS TO GCG PACKAGE FOR TRANSPORT TIME STEP  2014 IN FLOW TIME STEP     1 STRESS PERIOD     3
      4 TOTAL ITERATIONS
     1 CALLS TO GCG PACKAGE FOR TRANSPORT TIME STEP  2015 IN FLOW TIME STEP     1 STRESS PERIOD     3
      4 TOTAL ITERATIONS
     1 CALLS TO GCG PACKAGE FOR TRANSPORT TIME STEP  2016 IN FLOW TIME STEP     1 STRESS PERIOD     3
      4 TOTAL ITERATIONS
     1 CALLS TO GCG PACKAGE FOR TRANSPORT TIME STEP  2017 IN FLOW TIME STEP     1 STRESS PERIOD     3
      4 TOTAL ITERATIONS
     1 CALLS TO GCG PACKAGE FOR TRANSPORT TIME STEP  2018 IN FLOW TIME STEP     1 STRESS PERIOD     3
      4 TOTAL ITERATIONS
     1 CALLS TO GCG PACKAGE FOR TRANSPORT TIME STEP  2019 IN FLOW TIME STEP     1 STRESS PERIOD     3
      4 TOTAL ITERATIONS
     1 CALLS TO GCG PACKAGE FOR TRANSPORT TIME STEP  2020 IN FLOW TIME STEP     1 STRESS PERIOD     3
      4 TOTAL ITERATIONS
     1 CALLS TO GCG PACKAGE FOR TRANSPORT TIME STEP  2021 IN FLOW TIME STEP     1 STRESS PERIOD     3
      4 TOTAL ITERATIONS
     1 CALLS TO GCG PACKAGE FOR TRANSPORT TIME STEP  2022 IN FLOW TIME STEP     1 STRESS PERIOD     3
      4 TOTAL ITERATIONS
     1 CALLS TO GCG PACKAGE FOR TRANSPORT TIME STEP  2023 IN FLOW TIME STEP     1 STRESS PERIOD     3
      3 TOTAL ITERATIONS



 >>>>>>>>>>>>>>>>>>>>>>>>>>>>>>>>>>>>>>>>>>>>>>>>>>>>>>>FOR COMPONENT NO. 01<<<<<<<<<<<<<<<<<<<<<<<<<<<<<<<<<<<<<<<<<<<<<<<<<<<<<<<


                                            -------------------------------------------
                                                      TRANSPORT STEP NO. 2023
                                            -------------------------------------------

 TOTAL ELAPSED TIME SINCE BEGINNING OF SIMULATION =   68.06000    D   
 .....................................................................

                     CUMULATIVE MASS BUDGETS AT END OF TRANSPORT STEP 2023, TIME STEP    1, STRESS PERIOD    3
                     -----------------------------------------------------------------------------------------

                                                             IN                           OUT
                                                      ----------------             ----------------
                               CONSTANT CONCENTRATION:    0.000000                    0.000000    
                                        CONSTANT HEAD:    0.000000                  -0.3595341E-01
                                                WELLS:   0.4200194E-01                0.000000    
                               MASS STOR (FLOW MODEL):    0.000000                    0.000000    
                                MASS STORAGE (SOLUTE):   0.1977970E-04              -0.6069400E-02
                            ---------------------------------------------------------------------------
                                              [TOTAL]:   0.4202172E-01 KG           -0.4202281E-01 KG  

                                                          NET (IN - OUT):  -0.1091510E-05
                                                   DISCREPANCY (PERCENT):  -0.2597457E-02
     1 CALLS TO GCG PACKAGE FOR TRANSPORT TIME STEP  2024 IN FLOW TIME STEP     1 STRESS PERIOD     3
      4 TOTAL ITERATIONS
     1 CALLS TO GCG PACKAGE FOR TRANSPORT TIME STEP  2025 IN FLOW TIME STEP     1 STRESS PERIOD     3
      4 TOTAL ITERATIONS
     1 CALLS TO GCG PACKAGE FOR TRANSPORT TIME STEP  2026 IN FLOW TIME STEP     1 STRESS PERIOD     3
      4 TOTAL ITERATIONS
     1 CALLS TO GCG PACKAGE FOR TRANSPORT TIME STEP  2027 IN FLOW TIME STEP     1 STRESS PERIOD     3
      4 TOTAL ITERATIONS
     1 CALLS TO GCG PACKAGE FOR TRANSPORT TIME STEP  2028 IN FLOW TIME STEP     1 STRESS PERIOD     3
      4 TOTAL ITERATIONS
     1 CALLS TO GCG PACKAGE FOR TRANSPORT TIME STEP  2029 IN FLOW TIME STEP     1 STRESS PERIOD     3
      4 TOTAL ITERATIONS
     1 CALLS TO GCG PACKAGE FOR TRANSPORT TIME STEP  2030 IN FLOW TIME STEP     1 STRESS PERIOD     3
      4 TOTAL ITERATIONS
     1 CALLS TO GCG PACKAGE FOR TRANSPORT TIME STEP  2031 IN FLOW TIME STEP     1 STRESS PERIOD     3
      4 TOTAL ITERATIONS
     1 CALLS TO GCG PACKAGE FOR TRANSPORT TIME STEP  2032 IN FLOW TIME STEP     1 STRESS PERIOD     3
      4 TOTAL ITERATIONS
     1 CALLS TO GCG PACKAGE FOR TRANSPORT TIME STEP  2033 IN FLOW TIME STEP     1 STRESS PERIOD     3
      4 TOTAL ITERATIONS
     1 CALLS TO GCG PACKAGE FOR TRANSPORT TIME STEP  2034 IN FLOW TIME STEP     1 STRESS PERIOD     3
      4 TOTAL ITERATIONS
     1 CALLS TO GCG PACKAGE FOR TRANSPORT TIME STEP  2035 IN FLOW TIME STEP     1 STRESS PERIOD     3
      4 TOTAL ITERATIONS
     1 CALLS TO GCG PACKAGE FOR TRANSPORT TIME STEP  2036 IN FLOW TIME STEP     1 STRESS PERIOD     3
      4 TOTAL ITERATIONS
     1 CALLS TO GCG PACKAGE FOR TRANSPORT TIME STEP  2037 IN FLOW TIME STEP     1 STRESS PERIOD     3
      4 TOTAL ITERATIONS
     1 CALLS TO GCG PACKAGE FOR TRANSPORT TIME STEP  2038 IN FLOW TIME STEP     1 STRESS PERIOD     3
      4 TOTAL ITERATIONS
     1 CALLS TO GCG PACKAGE FOR TRANSPORT TIME STEP  2039 IN FLOW TIME STEP     1 STRESS PERIOD     3
      4 TOTAL ITERATIONS
     1 CALLS TO GCG PACKAGE FOR TRANSPORT TIME STEP  2040 IN FLOW TIME STEP     1 STRESS PERIOD     3
      4 TOTAL ITERATIONS
     1 CALLS TO GCG PACKAGE FOR TRANSPORT TIME STEP  2041 IN FLOW TIME STEP     1 STRESS PERIOD     3
      4 TOTAL ITERATIONS
     1 CALLS TO GCG PACKAGE FOR TRANSPORT TIME STEP  2042 IN FLOW TIME STEP     1 STRESS PERIOD     3
      4 TOTAL ITERATIONS
     1 CALLS TO GCG PACKAGE FOR TRANSPORT TIME STEP  2043 IN FLOW TIME STEP     1 STRESS PERIOD     3
      4 TOTAL ITERATIONS
     1 CALLS TO GCG PACKAGE FOR TRANSPORT TIME STEP  2044 IN FLOW TIME STEP     1 STRESS PERIOD     3
      4 TOTAL ITERATIONS
     1 CALLS TO GCG PACKAGE FOR TRANSPORT TIME STEP  2045 IN FLOW TIME STEP     1 STRESS PERIOD     3
      4 TOTAL ITERATIONS
     1 CALLS TO GCG PACKAGE FOR TRANSPORT TIME STEP  2046 IN FLOW TIME STEP     1 STRESS PERIOD     3
      4 TOTAL ITERATIONS
     1 CALLS TO GCG PACKAGE FOR TRANSPORT TIME STEP  2047 IN FLOW TIME STEP     1 STRESS PERIOD     3
      4 TOTAL ITERATIONS
     1 CALLS TO GCG PACKAGE FOR TRANSPORT TIME STEP  2048 IN FLOW TIME STEP     1 STRESS PERIOD     3
      4 TOTAL ITERATIONS
     1 CALLS TO GCG PACKAGE FOR TRANSPORT TIME STEP  2049 IN FLOW TIME STEP     1 STRESS PERIOD     3
      4 TOTAL ITERATIONS
     1 CALLS TO GCG PACKAGE FOR TRANSPORT TIME STEP  2050 IN FLOW TIME STEP     1 STRESS PERIOD     3
      4 TOTAL ITERATIONS
     1 CALLS TO GCG PACKAGE FOR TRANSPORT TIME STEP  2051 IN FLOW TIME STEP     1 STRESS PERIOD     3
      4 TOTAL ITERATIONS
     1 CALLS TO GCG PACKAGE FOR TRANSPORT TIME STEP  2052 IN FLOW TIME STEP     1 STRESS PERIOD     3
      4 TOTAL ITERATIONS
     1 CALLS TO GCG PACKAGE FOR TRANSPORT TIME STEP  2053 IN FLOW TIME STEP     1 STRESS PERIOD     3
      4 TOTAL ITERATIONS
     1 CALLS TO GCG PACKAGE FOR TRANSPORT TIME STEP  2054 IN FLOW TIME STEP     1 STRESS PERIOD     3
      4 TOTAL ITERATIONS
     1 CALLS TO GCG PACKAGE FOR TRANSPORT TIME STEP  2055 IN FLOW TIME STEP     1 STRESS PERIOD     3
      4 TOTAL ITERATIONS
     1 CALLS TO GCG PACKAGE FOR TRANSPORT TIME STEP  2056 IN FLOW TIME STEP     1 STRESS PERIOD     3
      4 TOTAL ITERATIONS
     1 CALLS TO GCG PACKAGE FOR TRANSPORT TIME STEP  2057 IN FLOW TIME STEP     1 STRESS PERIOD     3
      4 TOTAL ITERATIONS
     1 CALLS TO GCG PACKAGE FOR TRANSPORT TIME STEP  2058 IN FLOW TIME STEP     1 STRESS PERIOD     3
      4 TOTAL ITERATIONS
     1 CALLS TO GCG PACKAGE FOR TRANSPORT TIME STEP  2059 IN FLOW TIME STEP     1 STRESS PERIOD     3
      4 TOTAL ITERATIONS
     1 CALLS TO GCG PACKAGE FOR TRANSPORT TIME STEP  2060 IN FLOW TIME STEP     1 STRESS PERIOD     3
      4 TOTAL ITERATIONS
     1 CALLS TO GCG PACKAGE FOR TRANSPORT TIME STEP  2061 IN FLOW TIME STEP     1 STRESS PERIOD     3
      4 TOTAL ITERATIONS
     1 CALLS TO GCG PACKAGE FOR TRANSPORT TIME STEP  2062 IN FLOW TIME STEP     1 STRESS PERIOD     3
      4 TOTAL ITERATIONS
     1 CALLS TO GCG PACKAGE FOR TRANSPORT TIME STEP  2063 IN FLOW TIME STEP     1 STRESS PERIOD     3
      4 TOTAL ITERATIONS
     1 CALLS TO GCG PACKAGE FOR TRANSPORT TIME STEP  2064 IN FLOW TIME STEP     1 STRESS PERIOD     3
      4 TOTAL ITERATIONS
     1 CALLS TO GCG PACKAGE FOR TRANSPORT TIME STEP  2065 IN FLOW TIME STEP     1 STRESS PERIOD     3
      4 TOTAL ITERATIONS
     1 CALLS TO GCG PACKAGE FOR TRANSPORT TIME STEP  2066 IN FLOW TIME STEP     1 STRESS PERIOD     3
      4 TOTAL ITERATIONS
     1 CALLS TO GCG PACKAGE FOR TRANSPORT TIME STEP  2067 IN FLOW TIME STEP     1 STRESS PERIOD     3
      4 TOTAL ITERATIONS
     1 CALLS TO GCG PACKAGE FOR TRANSPORT TIME STEP  2068 IN FLOW TIME STEP     1 STRESS PERIOD     3
      4 TOTAL ITERATIONS
     1 CALLS TO GCG PACKAGE FOR TRANSPORT TIME STEP  2069 IN FLOW TIME STEP     1 STRESS PERIOD     3
      3 TOTAL ITERATIONS



 >>>>>>>>>>>>>>>>>>>>>>>>>>>>>>>>>>>>>>>>>>>>>>>>>>>>>>>FOR COMPONENT NO. 01<<<<<<<<<<<<<<<<<<<<<<<<<<<<<<<<<<<<<<<<<<<<<<<<<<<<<<<


                                            -------------------------------------------
                                                      TRANSPORT STEP NO. 2069
                                            -------------------------------------------

 TOTAL ELAPSED TIME SINCE BEGINNING OF SIMULATION =   68.88000    D   
 .....................................................................

                     CUMULATIVE MASS BUDGETS AT END OF TRANSPORT STEP 2069, TIME STEP    1, STRESS PERIOD    3
                     -----------------------------------------------------------------------------------------

                                                             IN                           OUT
                                                      ----------------             ----------------
                               CONSTANT CONCENTRATION:    0.000000                    0.000000    
                                        CONSTANT HEAD:    0.000000                  -0.3645878E-01
                                                WELLS:   0.4250802E-01                0.000000    
                               MASS STOR (FLOW MODEL):    0.000000                    0.000000    
                                MASS STORAGE (SOLUTE):   0.1980713E-04              -0.6070226E-02
                            ---------------------------------------------------------------------------
                                              [TOTAL]:   0.4252783E-01 KG           -0.4252900E-01 KG  

                                                          NET (IN - OUT):  -0.1173466E-05
                                                   DISCREPANCY (PERCENT):  -0.2759253E-02
     1 CALLS TO GCG PACKAGE FOR TRANSPORT TIME STEP  2070 IN FLOW TIME STEP     1 STRESS PERIOD     3
      4 TOTAL ITERATIONS
     1 CALLS TO GCG PACKAGE FOR TRANSPORT TIME STEP  2071 IN FLOW TIME STEP     1 STRESS PERIOD     3
      4 TOTAL ITERATIONS
     1 CALLS TO GCG PACKAGE FOR TRANSPORT TIME STEP  2072 IN FLOW TIME STEP     1 STRESS PERIOD     3
      4 TOTAL ITERATIONS
     1 CALLS TO GCG PACKAGE FOR TRANSPORT TIME STEP  2073 IN FLOW TIME STEP     1 STRESS PERIOD     3
      4 TOTAL ITERATIONS
     1 CALLS TO GCG PACKAGE FOR TRANSPORT TIME STEP  2074 IN FLOW TIME STEP     1 STRESS PERIOD     3
      4 TOTAL ITERATIONS
     1 CALLS TO GCG PACKAGE FOR TRANSPORT TIME STEP  2075 IN FLOW TIME STEP     1 STRESS PERIOD     3
      4 TOTAL ITERATIONS
     1 CALLS TO GCG PACKAGE FOR TRANSPORT TIME STEP  2076 IN FLOW TIME STEP     1 STRESS PERIOD     3
      4 TOTAL ITERATIONS
     1 CALLS TO GCG PACKAGE FOR TRANSPORT TIME STEP  2077 IN FLOW TIME STEP     1 STRESS PERIOD     3
      4 TOTAL ITERATIONS
     1 CALLS TO GCG PACKAGE FOR TRANSPORT TIME STEP  2078 IN FLOW TIME STEP     1 STRESS PERIOD     3
      4 TOTAL ITERATIONS
     1 CALLS TO GCG PACKAGE FOR TRANSPORT TIME STEP  2079 IN FLOW TIME STEP     1 STRESS PERIOD     3
      4 TOTAL ITERATIONS
     1 CALLS TO GCG PACKAGE FOR TRANSPORT TIME STEP  2080 IN FLOW TIME STEP     1 STRESS PERIOD     3
      4 TOTAL ITERATIONS
     1 CALLS TO GCG PACKAGE FOR TRANSPORT TIME STEP  2081 IN FLOW TIME STEP     1 STRESS PERIOD     3
      4 TOTAL ITERATIONS
     1 CALLS TO GCG PACKAGE FOR TRANSPORT TIME STEP  2082 IN FLOW TIME STEP     1 STRESS PERIOD     3
      4 TOTAL ITERATIONS
     1 CALLS TO GCG PACKAGE FOR TRANSPORT TIME STEP  2083 IN FLOW TIME STEP     1 STRESS PERIOD     3
      4 TOTAL ITERATIONS
     1 CALLS TO GCG PACKAGE FOR TRANSPORT TIME STEP  2084 IN FLOW TIME STEP     1 STRESS PERIOD     3
      4 TOTAL ITERATIONS
     1 CALLS TO GCG PACKAGE FOR TRANSPORT TIME STEP  2085 IN FLOW TIME STEP     1 STRESS PERIOD     3
      4 TOTAL ITERATIONS
     1 CALLS TO GCG PACKAGE FOR TRANSPORT TIME STEP  2086 IN FLOW TIME STEP     1 STRESS PERIOD     3
      4 TOTAL ITERATIONS
     1 CALLS TO GCG PACKAGE FOR TRANSPORT TIME STEP  2087 IN FLOW TIME STEP     1 STRESS PERIOD     3
      4 TOTAL ITERATIONS
     1 CALLS TO GCG PACKAGE FOR TRANSPORT TIME STEP  2088 IN FLOW TIME STEP     1 STRESS PERIOD     3
      4 TOTAL ITERATIONS
     1 CALLS TO GCG PACKAGE FOR TRANSPORT TIME STEP  2089 IN FLOW TIME STEP     1 STRESS PERIOD     3
      4 TOTAL ITERATIONS
     1 CALLS TO GCG PACKAGE FOR TRANSPORT TIME STEP  2090 IN FLOW TIME STEP     1 STRESS PERIOD     3
      4 TOTAL ITERATIONS
     1 CALLS TO GCG PACKAGE FOR TRANSPORT TIME STEP  2091 IN FLOW TIME STEP     1 STRESS PERIOD     3
      4 TOTAL ITERATIONS
     1 CALLS TO GCG PACKAGE FOR TRANSPORT TIME STEP  2092 IN FLOW TIME STEP     1 STRESS PERIOD     3
      4 TOTAL ITERATIONS
     1 CALLS TO GCG PACKAGE FOR TRANSPORT TIME STEP  2093 IN FLOW TIME STEP     1 STRESS PERIOD     3
      4 TOTAL ITERATIONS
     1 CALLS TO GCG PACKAGE FOR TRANSPORT TIME STEP  2094 IN FLOW TIME STEP     1 STRESS PERIOD     3
      4 TOTAL ITERATIONS
     1 CALLS TO GCG PACKAGE FOR TRANSPORT TIME STEP  2095 IN FLOW TIME STEP     1 STRESS PERIOD     3
      4 TOTAL ITERATIONS
     1 CALLS TO GCG PACKAGE FOR TRANSPORT TIME STEP  2096 IN FLOW TIME STEP     1 STRESS PERIOD     3
      4 TOTAL ITERATIONS
     1 CALLS TO GCG PACKAGE FOR TRANSPORT TIME STEP  2097 IN FLOW TIME STEP     1 STRESS PERIOD     3
      4 TOTAL ITERATIONS
     1 CALLS TO GCG PACKAGE FOR TRANSPORT TIME STEP  2098 IN FLOW TIME STEP     1 STRESS PERIOD     3
      4 TOTAL ITERATIONS
     1 CALLS TO GCG PACKAGE FOR TRANSPORT TIME STEP  2099 IN FLOW TIME STEP     1 STRESS PERIOD     3
      4 TOTAL ITERATIONS
     1 CALLS TO GCG PACKAGE FOR TRANSPORT TIME STEP  2100 IN FLOW TIME STEP     1 STRESS PERIOD     3
      4 TOTAL ITERATIONS
     1 CALLS TO GCG PACKAGE FOR TRANSPORT TIME STEP  2101 IN FLOW TIME STEP     1 STRESS PERIOD     3
      4 TOTAL ITERATIONS
     1 CALLS TO GCG PACKAGE FOR TRANSPORT TIME STEP  2102 IN FLOW TIME STEP     1 STRESS PERIOD     3
      4 TOTAL ITERATIONS
     1 CALLS TO GCG PACKAGE FOR TRANSPORT TIME STEP  2103 IN FLOW TIME STEP     1 STRESS PERIOD     3
      4 TOTAL ITERATIONS
     1 CALLS TO GCG PACKAGE FOR TRANSPORT TIME STEP  2104 IN FLOW TIME STEP     1 STRESS PERIOD     3
      4 TOTAL ITERATIONS
     1 CALLS TO GCG PACKAGE FOR TRANSPORT TIME STEP  2105 IN FLOW TIME STEP     1 STRESS PERIOD     3
      4 TOTAL ITERATIONS
     1 CALLS TO GCG PACKAGE FOR TRANSPORT TIME STEP  2106 IN FLOW TIME STEP     1 STRESS PERIOD     3
      4 TOTAL ITERATIONS
     1 CALLS TO GCG PACKAGE FOR TRANSPORT TIME STEP  2107 IN FLOW TIME STEP     1 STRESS PERIOD     3
      4 TOTAL ITERATIONS
     1 CALLS TO GCG PACKAGE FOR TRANSPORT TIME STEP  2108 IN FLOW TIME STEP     1 STRESS PERIOD     3
      4 TOTAL ITERATIONS
     1 CALLS TO GCG PACKAGE FOR TRANSPORT TIME STEP  2109 IN FLOW TIME STEP     1 STRESS PERIOD     3
      4 TOTAL ITERATIONS
     1 CALLS TO GCG PACKAGE FOR TRANSPORT TIME STEP  2110 IN FLOW TIME STEP     1 STRESS PERIOD     3
      4 TOTAL ITERATIONS
     1 CALLS TO GCG PACKAGE FOR TRANSPORT TIME STEP  2111 IN FLOW TIME STEP     1 STRESS PERIOD     3
      4 TOTAL ITERATIONS
     1 CALLS TO GCG PACKAGE FOR TRANSPORT TIME STEP  2112 IN FLOW TIME STEP     1 STRESS PERIOD     3
      4 TOTAL ITERATIONS
     1 CALLS TO GCG PACKAGE FOR TRANSPORT TIME STEP  2113 IN FLOW TIME STEP     1 STRESS PERIOD     3
      4 TOTAL ITERATIONS
     1 CALLS TO GCG PACKAGE FOR TRANSPORT TIME STEP  2114 IN FLOW TIME STEP     1 STRESS PERIOD     3
      4 TOTAL ITERATIONS
     1 CALLS TO GCG PACKAGE FOR TRANSPORT TIME STEP  2115 IN FLOW TIME STEP     1 STRESS PERIOD     3
      3 TOTAL ITERATIONS



 >>>>>>>>>>>>>>>>>>>>>>>>>>>>>>>>>>>>>>>>>>>>>>>>>>>>>>>FOR COMPONENT NO. 01<<<<<<<<<<<<<<<<<<<<<<<<<<<<<<<<<<<<<<<<<<<<<<<<<<<<<<<


                                            -------------------------------------------
                                                      TRANSPORT STEP NO. 2115
                                            -------------------------------------------

 TOTAL ELAPSED TIME SINCE BEGINNING OF SIMULATION =   69.70000    D   
 .....................................................................

                     CUMULATIVE MASS BUDGETS AT END OF TRANSPORT STEP 2115, TIME STEP    1, STRESS PERIOD    3
                     -----------------------------------------------------------------------------------------

                                                             IN                           OUT
                                                      ----------------             ----------------
                               CONSTANT CONCENTRATION:    0.000000                    0.000000    
                                        CONSTANT HEAD:    0.000000                  -0.3696419E-01
                                                WELLS:   0.4301411E-01                0.000000    
                               MASS STOR (FLOW MODEL):    0.000000                    0.000000    
                                MASS STORAGE (SOLUTE):   0.1983469E-04              -0.6071002E-02
                            ---------------------------------------------------------------------------
                                              [TOTAL]:   0.4303394E-01 KG           -0.4303519E-01 KG  

                                                          NET (IN - OUT):  -0.1247972E-05
                                                   DISCREPANCY (PERCENT):  -0.2899930E-02
     1 CALLS TO GCG PACKAGE FOR TRANSPORT TIME STEP  2116 IN FLOW TIME STEP     1 STRESS PERIOD     3
      4 TOTAL ITERATIONS
     1 CALLS TO GCG PACKAGE FOR TRANSPORT TIME STEP  2117 IN FLOW TIME STEP     1 STRESS PERIOD     3
      4 TOTAL ITERATIONS
     1 CALLS TO GCG PACKAGE FOR TRANSPORT TIME STEP  2118 IN FLOW TIME STEP     1 STRESS PERIOD     3
      4 TOTAL ITERATIONS
     1 CALLS TO GCG PACKAGE FOR TRANSPORT TIME STEP  2119 IN FLOW TIME STEP     1 STRESS PERIOD     3
      4 TOTAL ITERATIONS
     1 CALLS TO GCG PACKAGE FOR TRANSPORT TIME STEP  2120 IN FLOW TIME STEP     1 STRESS PERIOD     3
      4 TOTAL ITERATIONS
     1 CALLS TO GCG PACKAGE FOR TRANSPORT TIME STEP  2121 IN FLOW TIME STEP     1 STRESS PERIOD     3
      4 TOTAL ITERATIONS
     1 CALLS TO GCG PACKAGE FOR TRANSPORT TIME STEP  2122 IN FLOW TIME STEP     1 STRESS PERIOD     3
      4 TOTAL ITERATIONS
     1 CALLS TO GCG PACKAGE FOR TRANSPORT TIME STEP  2123 IN FLOW TIME STEP     1 STRESS PERIOD     3
      4 TOTAL ITERATIONS
     1 CALLS TO GCG PACKAGE FOR TRANSPORT TIME STEP  2124 IN FLOW TIME STEP     1 STRESS PERIOD     3
      4 TOTAL ITERATIONS
     1 CALLS TO GCG PACKAGE FOR TRANSPORT TIME STEP  2125 IN FLOW TIME STEP     1 STRESS PERIOD     3
      4 TOTAL ITERATIONS
     1 CALLS TO GCG PACKAGE FOR TRANSPORT TIME STEP  2126 IN FLOW TIME STEP     1 STRESS PERIOD     3
      4 TOTAL ITERATIONS
     1 CALLS TO GCG PACKAGE FOR TRANSPORT TIME STEP  2127 IN FLOW TIME STEP     1 STRESS PERIOD     3
      4 TOTAL ITERATIONS
     1 CALLS TO GCG PACKAGE FOR TRANSPORT TIME STEP  2128 IN FLOW TIME STEP     1 STRESS PERIOD     3
      4 TOTAL ITERATIONS
     1 CALLS TO GCG PACKAGE FOR TRANSPORT TIME STEP  2129 IN FLOW TIME STEP     1 STRESS PERIOD     3
      4 TOTAL ITERATIONS
     1 CALLS TO GCG PACKAGE FOR TRANSPORT TIME STEP  2130 IN FLOW TIME STEP     1 STRESS PERIOD     3
      4 TOTAL ITERATIONS
     1 CALLS TO GCG PACKAGE FOR TRANSPORT TIME STEP  2131 IN FLOW TIME STEP     1 STRESS PERIOD     3
      4 TOTAL ITERATIONS
     1 CALLS TO GCG PACKAGE FOR TRANSPORT TIME STEP  2132 IN FLOW TIME STEP     1 STRESS PERIOD     3
      4 TOTAL ITERATIONS
     1 CALLS TO GCG PACKAGE FOR TRANSPORT TIME STEP  2133 IN FLOW TIME STEP     1 STRESS PERIOD     3
      4 TOTAL ITERATIONS
     1 CALLS TO GCG PACKAGE FOR TRANSPORT TIME STEP  2134 IN FLOW TIME STEP     1 STRESS PERIOD     3
      4 TOTAL ITERATIONS
     1 CALLS TO GCG PACKAGE FOR TRANSPORT TIME STEP  2135 IN FLOW TIME STEP     1 STRESS PERIOD     3
      4 TOTAL ITERATIONS
     1 CALLS TO GCG PACKAGE FOR TRANSPORT TIME STEP  2136 IN FLOW TIME STEP     1 STRESS PERIOD     3
      4 TOTAL ITERATIONS
     1 CALLS TO GCG PACKAGE FOR TRANSPORT TIME STEP  2137 IN FLOW TIME STEP     1 STRESS PERIOD     3
      4 TOTAL ITERATIONS
     1 CALLS TO GCG PACKAGE FOR TRANSPORT TIME STEP  2138 IN FLOW TIME STEP     1 STRESS PERIOD     3
      4 TOTAL ITERATIONS
     1 CALLS TO GCG PACKAGE FOR TRANSPORT TIME STEP  2139 IN FLOW TIME STEP     1 STRESS PERIOD     3
      4 TOTAL ITERATIONS
     1 CALLS TO GCG PACKAGE FOR TRANSPORT TIME STEP  2140 IN FLOW TIME STEP     1 STRESS PERIOD     3
      4 TOTAL ITERATIONS
     1 CALLS TO GCG PACKAGE FOR TRANSPORT TIME STEP  2141 IN FLOW TIME STEP     1 STRESS PERIOD     3
      4 TOTAL ITERATIONS
     1 CALLS TO GCG PACKAGE FOR TRANSPORT TIME STEP  2142 IN FLOW TIME STEP     1 STRESS PERIOD     3
      4 TOTAL ITERATIONS
     1 CALLS TO GCG PACKAGE FOR TRANSPORT TIME STEP  2143 IN FLOW TIME STEP     1 STRESS PERIOD     3
      4 TOTAL ITERATIONS
     1 CALLS TO GCG PACKAGE FOR TRANSPORT TIME STEP  2144 IN FLOW TIME STEP     1 STRESS PERIOD     3
      4 TOTAL ITERATIONS
     1 CALLS TO GCG PACKAGE FOR TRANSPORT TIME STEP  2145 IN FLOW TIME STEP     1 STRESS PERIOD     3
      4 TOTAL ITERATIONS
     1 CALLS TO GCG PACKAGE FOR TRANSPORT TIME STEP  2146 IN FLOW TIME STEP     1 STRESS PERIOD     3
      4 TOTAL ITERATIONS
     1 CALLS TO GCG PACKAGE FOR TRANSPORT TIME STEP  2147 IN FLOW TIME STEP     1 STRESS PERIOD     3
      4 TOTAL ITERATIONS
     1 CALLS TO GCG PACKAGE FOR TRANSPORT TIME STEP  2148 IN FLOW TIME STEP     1 STRESS PERIOD     3
      4 TOTAL ITERATIONS
     1 CALLS TO GCG PACKAGE FOR TRANSPORT TIME STEP  2149 IN FLOW TIME STEP     1 STRESS PERIOD     3
      4 TOTAL ITERATIONS
     1 CALLS TO GCG PACKAGE FOR TRANSPORT TIME STEP  2150 IN FLOW TIME STEP     1 STRESS PERIOD     3
      4 TOTAL ITERATIONS
     1 CALLS TO GCG PACKAGE FOR TRANSPORT TIME STEP  2151 IN FLOW TIME STEP     1 STRESS PERIOD     3
      4 TOTAL ITERATIONS
     1 CALLS TO GCG PACKAGE FOR TRANSPORT TIME STEP  2152 IN FLOW TIME STEP     1 STRESS PERIOD     3
      4 TOTAL ITERATIONS
     1 CALLS TO GCG PACKAGE FOR TRANSPORT TIME STEP  2153 IN FLOW TIME STEP     1 STRESS PERIOD     3
      4 TOTAL ITERATIONS
     1 CALLS TO GCG PACKAGE FOR TRANSPORT TIME STEP  2154 IN FLOW TIME STEP     1 STRESS PERIOD     3
      4 TOTAL ITERATIONS
     1 CALLS TO GCG PACKAGE FOR TRANSPORT TIME STEP  2155 IN FLOW TIME STEP     1 STRESS PERIOD     3
      4 TOTAL ITERATIONS
     1 CALLS TO GCG PACKAGE FOR TRANSPORT TIME STEP  2156 IN FLOW TIME STEP     1 STRESS PERIOD     3
      4 TOTAL ITERATIONS
     1 CALLS TO GCG PACKAGE FOR TRANSPORT TIME STEP  2157 IN FLOW TIME STEP     1 STRESS PERIOD     3
      4 TOTAL ITERATIONS
     1 CALLS TO GCG PACKAGE FOR TRANSPORT TIME STEP  2158 IN FLOW TIME STEP     1 STRESS PERIOD     3
      4 TOTAL ITERATIONS
     1 CALLS TO GCG PACKAGE FOR TRANSPORT TIME STEP  2159 IN FLOW TIME STEP     1 STRESS PERIOD     3
      4 TOTAL ITERATIONS
     1 CALLS TO GCG PACKAGE FOR TRANSPORT TIME STEP  2160 IN FLOW TIME STEP     1 STRESS PERIOD     3
      4 TOTAL ITERATIONS
     1 CALLS TO GCG PACKAGE FOR TRANSPORT TIME STEP  2161 IN FLOW TIME STEP     1 STRESS PERIOD     3
      3 TOTAL ITERATIONS



 >>>>>>>>>>>>>>>>>>>>>>>>>>>>>>>>>>>>>>>>>>>>>>>>>>>>>>>FOR COMPONENT NO. 01<<<<<<<<<<<<<<<<<<<<<<<<<<<<<<<<<<<<<<<<<<<<<<<<<<<<<<<


                                            -------------------------------------------
                                                      TRANSPORT STEP NO. 2161
                                            -------------------------------------------

 TOTAL ELAPSED TIME SINCE BEGINNING OF SIMULATION =   70.52000    D   
 .....................................................................

                     CUMULATIVE MASS BUDGETS AT END OF TRANSPORT STEP 2161, TIME STEP    1, STRESS PERIOD    3
                     -----------------------------------------------------------------------------------------

                                                             IN                           OUT
                                                      ----------------             ----------------
                               CONSTANT CONCENTRATION:    0.000000                    0.000000    
                                        CONSTANT HEAD:    0.000000                  -0.3746960E-01
                                                WELLS:   0.4352019E-01                0.000000    
                               MASS STOR (FLOW MODEL):    0.000000                    0.000000    
                                MASS STORAGE (SOLUTE):   0.1986228E-04              -0.6071731E-02
                            ---------------------------------------------------------------------------
                                              [TOTAL]:   0.4354005E-01 KG           -0.4354133E-01 KG  

                                                          NET (IN - OUT):  -0.1274049E-05
                                                   DISCREPANCY (PERCENT):  -0.2926112E-02
     1 CALLS TO GCG PACKAGE FOR TRANSPORT TIME STEP  2162 IN FLOW TIME STEP     1 STRESS PERIOD     3
      4 TOTAL ITERATIONS
     1 CALLS TO GCG PACKAGE FOR TRANSPORT TIME STEP  2163 IN FLOW TIME STEP     1 STRESS PERIOD     3
      4 TOTAL ITERATIONS
     1 CALLS TO GCG PACKAGE FOR TRANSPORT TIME STEP  2164 IN FLOW TIME STEP     1 STRESS PERIOD     3
      4 TOTAL ITERATIONS
     1 CALLS TO GCG PACKAGE FOR TRANSPORT TIME STEP  2165 IN FLOW TIME STEP     1 STRESS PERIOD     3
      4 TOTAL ITERATIONS
     1 CALLS TO GCG PACKAGE FOR TRANSPORT TIME STEP  2166 IN FLOW TIME STEP     1 STRESS PERIOD     3
      4 TOTAL ITERATIONS
     1 CALLS TO GCG PACKAGE FOR TRANSPORT TIME STEP  2167 IN FLOW TIME STEP     1 STRESS PERIOD     3
      4 TOTAL ITERATIONS
     1 CALLS TO GCG PACKAGE FOR TRANSPORT TIME STEP  2168 IN FLOW TIME STEP     1 STRESS PERIOD     3
      4 TOTAL ITERATIONS
     1 CALLS TO GCG PACKAGE FOR TRANSPORT TIME STEP  2169 IN FLOW TIME STEP     1 STRESS PERIOD     3
      4 TOTAL ITERATIONS
     1 CALLS TO GCG PACKAGE FOR TRANSPORT TIME STEP  2170 IN FLOW TIME STEP     1 STRESS PERIOD     3
      4 TOTAL ITERATIONS
     1 CALLS TO GCG PACKAGE FOR TRANSPORT TIME STEP  2171 IN FLOW TIME STEP     1 STRESS PERIOD     3
      4 TOTAL ITERATIONS
     1 CALLS TO GCG PACKAGE FOR TRANSPORT TIME STEP  2172 IN FLOW TIME STEP     1 STRESS PERIOD     3
      4 TOTAL ITERATIONS
     1 CALLS TO GCG PACKAGE FOR TRANSPORT TIME STEP  2173 IN FLOW TIME STEP     1 STRESS PERIOD     3
      4 TOTAL ITERATIONS
     1 CALLS TO GCG PACKAGE FOR TRANSPORT TIME STEP  2174 IN FLOW TIME STEP     1 STRESS PERIOD     3
      4 TOTAL ITERATIONS
     1 CALLS TO GCG PACKAGE FOR TRANSPORT TIME STEP  2175 IN FLOW TIME STEP     1 STRESS PERIOD     3
      4 TOTAL ITERATIONS
     1 CALLS TO GCG PACKAGE FOR TRANSPORT TIME STEP  2176 IN FLOW TIME STEP     1 STRESS PERIOD     3
      4 TOTAL ITERATIONS
     1 CALLS TO GCG PACKAGE FOR TRANSPORT TIME STEP  2177 IN FLOW TIME STEP     1 STRESS PERIOD     3
      4 TOTAL ITERATIONS
     1 CALLS TO GCG PACKAGE FOR TRANSPORT TIME STEP  2178 IN FLOW TIME STEP     1 STRESS PERIOD     3
      4 TOTAL ITERATIONS
     1 CALLS TO GCG PACKAGE FOR TRANSPORT TIME STEP  2179 IN FLOW TIME STEP     1 STRESS PERIOD     3
      4 TOTAL ITERATIONS
     1 CALLS TO GCG PACKAGE FOR TRANSPORT TIME STEP  2180 IN FLOW TIME STEP     1 STRESS PERIOD     3
      4 TOTAL ITERATIONS
     1 CALLS TO GCG PACKAGE FOR TRANSPORT TIME STEP  2181 IN FLOW TIME STEP     1 STRESS PERIOD     3
      4 TOTAL ITERATIONS
     1 CALLS TO GCG PACKAGE FOR TRANSPORT TIME STEP  2182 IN FLOW TIME STEP     1 STRESS PERIOD     3
      4 TOTAL ITERATIONS
     1 CALLS TO GCG PACKAGE FOR TRANSPORT TIME STEP  2183 IN FLOW TIME STEP     1 STRESS PERIOD     3
      4 TOTAL ITERATIONS
     1 CALLS TO GCG PACKAGE FOR TRANSPORT TIME STEP  2184 IN FLOW TIME STEP     1 STRESS PERIOD     3
      4 TOTAL ITERATIONS
     1 CALLS TO GCG PACKAGE FOR TRANSPORT TIME STEP  2185 IN FLOW TIME STEP     1 STRESS PERIOD     3
      4 TOTAL ITERATIONS
     1 CALLS TO GCG PACKAGE FOR TRANSPORT TIME STEP  2186 IN FLOW TIME STEP     1 STRESS PERIOD     3
      4 TOTAL ITERATIONS
     1 CALLS TO GCG PACKAGE FOR TRANSPORT TIME STEP  2187 IN FLOW TIME STEP     1 STRESS PERIOD     3
      4 TOTAL ITERATIONS
     1 CALLS TO GCG PACKAGE FOR TRANSPORT TIME STEP  2188 IN FLOW TIME STEP     1 STRESS PERIOD     3
      4 TOTAL ITERATIONS
     1 CALLS TO GCG PACKAGE FOR TRANSPORT TIME STEP  2189 IN FLOW TIME STEP     1 STRESS PERIOD     3
      4 TOTAL ITERATIONS
     1 CALLS TO GCG PACKAGE FOR TRANSPORT TIME STEP  2190 IN FLOW TIME STEP     1 STRESS PERIOD     3
      4 TOTAL ITERATIONS
     1 CALLS TO GCG PACKAGE FOR TRANSPORT TIME STEP  2191 IN FLOW TIME STEP     1 STRESS PERIOD     3
      4 TOTAL ITERATIONS
     1 CALLS TO GCG PACKAGE FOR TRANSPORT TIME STEP  2192 IN FLOW TIME STEP     1 STRESS PERIOD     3
      4 TOTAL ITERATIONS
     1 CALLS TO GCG PACKAGE FOR TRANSPORT TIME STEP  2193 IN FLOW TIME STEP     1 STRESS PERIOD     3
      4 TOTAL ITERATIONS
     1 CALLS TO GCG PACKAGE FOR TRANSPORT TIME STEP  2194 IN FLOW TIME STEP     1 STRESS PERIOD     3
      4 TOTAL ITERATIONS
     1 CALLS TO GCG PACKAGE FOR TRANSPORT TIME STEP  2195 IN FLOW TIME STEP     1 STRESS PERIOD     3
      4 TOTAL ITERATIONS
     1 CALLS TO GCG PACKAGE FOR TRANSPORT TIME STEP  2196 IN FLOW TIME STEP     1 STRESS PERIOD     3
      4 TOTAL ITERATIONS
     1 CALLS TO GCG PACKAGE FOR TRANSPORT TIME STEP  2197 IN FLOW TIME STEP     1 STRESS PERIOD     3
      4 TOTAL ITERATIONS
     1 CALLS TO GCG PACKAGE FOR TRANSPORT TIME STEP  2198 IN FLOW TIME STEP     1 STRESS PERIOD     3
      4 TOTAL ITERATIONS
     1 CALLS TO GCG PACKAGE FOR TRANSPORT TIME STEP  2199 IN FLOW TIME STEP     1 STRESS PERIOD     3
      4 TOTAL ITERATIONS
     1 CALLS TO GCG PACKAGE FOR TRANSPORT TIME STEP  2200 IN FLOW TIME STEP     1 STRESS PERIOD     3
      4 TOTAL ITERATIONS
     1 CALLS TO GCG PACKAGE FOR TRANSPORT TIME STEP  2201 IN FLOW TIME STEP     1 STRESS PERIOD     3
      4 TOTAL ITERATIONS
     1 CALLS TO GCG PACKAGE FOR TRANSPORT TIME STEP  2202 IN FLOW TIME STEP     1 STRESS PERIOD     3
      4 TOTAL ITERATIONS
     1 CALLS TO GCG PACKAGE FOR TRANSPORT TIME STEP  2203 IN FLOW TIME STEP     1 STRESS PERIOD     3
      4 TOTAL ITERATIONS
     1 CALLS TO GCG PACKAGE FOR TRANSPORT TIME STEP  2204 IN FLOW TIME STEP     1 STRESS PERIOD     3
      4 TOTAL ITERATIONS
     1 CALLS TO GCG PACKAGE FOR TRANSPORT TIME STEP  2205 IN FLOW TIME STEP     1 STRESS PERIOD     3
      4 TOTAL ITERATIONS
     1 CALLS TO GCG PACKAGE FOR TRANSPORT TIME STEP  2206 IN FLOW TIME STEP     1 STRESS PERIOD     3
      4 TOTAL ITERATIONS
     1 CALLS TO GCG PACKAGE FOR TRANSPORT TIME STEP  2207 IN FLOW TIME STEP     1 STRESS PERIOD     3
      3 TOTAL ITERATIONS



 >>>>>>>>>>>>>>>>>>>>>>>>>>>>>>>>>>>>>>>>>>>>>>>>>>>>>>>FOR COMPONENT NO. 01<<<<<<<<<<<<<<<<<<<<<<<<<<<<<<<<<<<<<<<<<<<<<<<<<<<<<<<


                                            -------------------------------------------
                                                      TRANSPORT STEP NO. 2207
                                            -------------------------------------------

 TOTAL ELAPSED TIME SINCE BEGINNING OF SIMULATION =   71.34000    D   
 .....................................................................

                     CUMULATIVE MASS BUDGETS AT END OF TRANSPORT STEP 2207, TIME STEP    1, STRESS PERIOD    3
                     -----------------------------------------------------------------------------------------

                                                             IN                           OUT
                                                      ----------------             ----------------
                               CONSTANT CONCENTRATION:    0.000000                    0.000000    
                                        CONSTANT HEAD:    0.000000                  -0.3797503E-01
                                                WELLS:   0.4402627E-01                0.000000    
                               MASS STOR (FLOW MODEL):    0.000000                    0.000000    
                                MASS STORAGE (SOLUTE):   0.1988994E-04              -0.6072416E-02
                            ---------------------------------------------------------------------------
                                              [TOTAL]:   0.4404616E-01 KG           -0.4404745E-01 KG  

                                                          NET (IN - OUT):  -0.1285225E-05
                                                   DISCREPANCY (PERCENT):  -0.2917862E-02
     1 CALLS TO GCG PACKAGE FOR TRANSPORT TIME STEP  2208 IN FLOW TIME STEP     1 STRESS PERIOD     3
      4 TOTAL ITERATIONS
     1 CALLS TO GCG PACKAGE FOR TRANSPORT TIME STEP  2209 IN FLOW TIME STEP     1 STRESS PERIOD     3
      4 TOTAL ITERATIONS
     1 CALLS TO GCG PACKAGE FOR TRANSPORT TIME STEP  2210 IN FLOW TIME STEP     1 STRESS PERIOD     3
      4 TOTAL ITERATIONS
     1 CALLS TO GCG PACKAGE FOR TRANSPORT TIME STEP  2211 IN FLOW TIME STEP     1 STRESS PERIOD     3
      4 TOTAL ITERATIONS
     1 CALLS TO GCG PACKAGE FOR TRANSPORT TIME STEP  2212 IN FLOW TIME STEP     1 STRESS PERIOD     3
      4 TOTAL ITERATIONS
     1 CALLS TO GCG PACKAGE FOR TRANSPORT TIME STEP  2213 IN FLOW TIME STEP     1 STRESS PERIOD     3
      4 TOTAL ITERATIONS
     1 CALLS TO GCG PACKAGE FOR TRANSPORT TIME STEP  2214 IN FLOW TIME STEP     1 STRESS PERIOD     3
      4 TOTAL ITERATIONS
     1 CALLS TO GCG PACKAGE FOR TRANSPORT TIME STEP  2215 IN FLOW TIME STEP     1 STRESS PERIOD     3
      4 TOTAL ITERATIONS
     1 CALLS TO GCG PACKAGE FOR TRANSPORT TIME STEP  2216 IN FLOW TIME STEP     1 STRESS PERIOD     3
      4 TOTAL ITERATIONS
     1 CALLS TO GCG PACKAGE FOR TRANSPORT TIME STEP  2217 IN FLOW TIME STEP     1 STRESS PERIOD     3
      4 TOTAL ITERATIONS
     1 CALLS TO GCG PACKAGE FOR TRANSPORT TIME STEP  2218 IN FLOW TIME STEP     1 STRESS PERIOD     3
      4 TOTAL ITERATIONS
     1 CALLS TO GCG PACKAGE FOR TRANSPORT TIME STEP  2219 IN FLOW TIME STEP     1 STRESS PERIOD     3
      4 TOTAL ITERATIONS
     1 CALLS TO GCG PACKAGE FOR TRANSPORT TIME STEP  2220 IN FLOW TIME STEP     1 STRESS PERIOD     3
      4 TOTAL ITERATIONS
     1 CALLS TO GCG PACKAGE FOR TRANSPORT TIME STEP  2221 IN FLOW TIME STEP     1 STRESS PERIOD     3
      4 TOTAL ITERATIONS
     1 CALLS TO GCG PACKAGE FOR TRANSPORT TIME STEP  2222 IN FLOW TIME STEP     1 STRESS PERIOD     3
      4 TOTAL ITERATIONS
     1 CALLS TO GCG PACKAGE FOR TRANSPORT TIME STEP  2223 IN FLOW TIME STEP     1 STRESS PERIOD     3
      4 TOTAL ITERATIONS
     1 CALLS TO GCG PACKAGE FOR TRANSPORT TIME STEP  2224 IN FLOW TIME STEP     1 STRESS PERIOD     3
      4 TOTAL ITERATIONS
     1 CALLS TO GCG PACKAGE FOR TRANSPORT TIME STEP  2225 IN FLOW TIME STEP     1 STRESS PERIOD     3
      4 TOTAL ITERATIONS
     1 CALLS TO GCG PACKAGE FOR TRANSPORT TIME STEP  2226 IN FLOW TIME STEP     1 STRESS PERIOD     3
      4 TOTAL ITERATIONS
     1 CALLS TO GCG PACKAGE FOR TRANSPORT TIME STEP  2227 IN FLOW TIME STEP     1 STRESS PERIOD     3
      4 TOTAL ITERATIONS
     1 CALLS TO GCG PACKAGE FOR TRANSPORT TIME STEP  2228 IN FLOW TIME STEP     1 STRESS PERIOD     3
      4 TOTAL ITERATIONS
     1 CALLS TO GCG PACKAGE FOR TRANSPORT TIME STEP  2229 IN FLOW TIME STEP     1 STRESS PERIOD     3
      4 TOTAL ITERATIONS
     1 CALLS TO GCG PACKAGE FOR TRANSPORT TIME STEP  2230 IN FLOW TIME STEP     1 STRESS PERIOD     3
      4 TOTAL ITERATIONS
     1 CALLS TO GCG PACKAGE FOR TRANSPORT TIME STEP  2231 IN FLOW TIME STEP     1 STRESS PERIOD     3
      4 TOTAL ITERATIONS
     1 CALLS TO GCG PACKAGE FOR TRANSPORT TIME STEP  2232 IN FLOW TIME STEP     1 STRESS PERIOD     3
      4 TOTAL ITERATIONS
     1 CALLS TO GCG PACKAGE FOR TRANSPORT TIME STEP  2233 IN FLOW TIME STEP     1 STRESS PERIOD     3
      4 TOTAL ITERATIONS
     1 CALLS TO GCG PACKAGE FOR TRANSPORT TIME STEP  2234 IN FLOW TIME STEP     1 STRESS PERIOD     3
      4 TOTAL ITERATIONS
     1 CALLS TO GCG PACKAGE FOR TRANSPORT TIME STEP  2235 IN FLOW TIME STEP     1 STRESS PERIOD     3
      4 TOTAL ITERATIONS
     1 CALLS TO GCG PACKAGE FOR TRANSPORT TIME STEP  2236 IN FLOW TIME STEP     1 STRESS PERIOD     3
      4 TOTAL ITERATIONS
     1 CALLS TO GCG PACKAGE FOR TRANSPORT TIME STEP  2237 IN FLOW TIME STEP     1 STRESS PERIOD     3
      4 TOTAL ITERATIONS
     1 CALLS TO GCG PACKAGE FOR TRANSPORT TIME STEP  2238 IN FLOW TIME STEP     1 STRESS PERIOD     3
      4 TOTAL ITERATIONS
     1 CALLS TO GCG PACKAGE FOR TRANSPORT TIME STEP  2239 IN FLOW TIME STEP     1 STRESS PERIOD     3
      4 TOTAL ITERATIONS
     1 CALLS TO GCG PACKAGE FOR TRANSPORT TIME STEP  2240 IN FLOW TIME STEP     1 STRESS PERIOD     3
      4 TOTAL ITERATIONS
     1 CALLS TO GCG PACKAGE FOR TRANSPORT TIME STEP  2241 IN FLOW TIME STEP     1 STRESS PERIOD     3
      4 TOTAL ITERATIONS
     1 CALLS TO GCG PACKAGE FOR TRANSPORT TIME STEP  2242 IN FLOW TIME STEP     1 STRESS PERIOD     3
      4 TOTAL ITERATIONS
     1 CALLS TO GCG PACKAGE FOR TRANSPORT TIME STEP  2243 IN FLOW TIME STEP     1 STRESS PERIOD     3
      4 TOTAL ITERATIONS
     1 CALLS TO GCG PACKAGE FOR TRANSPORT TIME STEP  2244 IN FLOW TIME STEP     1 STRESS PERIOD     3
      4 TOTAL ITERATIONS
     1 CALLS TO GCG PACKAGE FOR TRANSPORT TIME STEP  2245 IN FLOW TIME STEP     1 STRESS PERIOD     3
      4 TOTAL ITERATIONS
     1 CALLS TO GCG PACKAGE FOR TRANSPORT TIME STEP  2246 IN FLOW TIME STEP     1 STRESS PERIOD     3
      4 TOTAL ITERATIONS
     1 CALLS TO GCG PACKAGE FOR TRANSPORT TIME STEP  2247 IN FLOW TIME STEP     1 STRESS PERIOD     3
      4 TOTAL ITERATIONS
     1 CALLS TO GCG PACKAGE FOR TRANSPORT TIME STEP  2248 IN FLOW TIME STEP     1 STRESS PERIOD     3
      4 TOTAL ITERATIONS
     1 CALLS TO GCG PACKAGE FOR TRANSPORT TIME STEP  2249 IN FLOW TIME STEP     1 STRESS PERIOD     3
      4 TOTAL ITERATIONS
     1 CALLS TO GCG PACKAGE FOR TRANSPORT TIME STEP  2250 IN FLOW TIME STEP     1 STRESS PERIOD     3
      4 TOTAL ITERATIONS
     1 CALLS TO GCG PACKAGE FOR TRANSPORT TIME STEP  2251 IN FLOW TIME STEP     1 STRESS PERIOD     3
      4 TOTAL ITERATIONS
     1 CALLS TO GCG PACKAGE FOR TRANSPORT TIME STEP  2252 IN FLOW TIME STEP     1 STRESS PERIOD     3
      4 TOTAL ITERATIONS
     1 CALLS TO GCG PACKAGE FOR TRANSPORT TIME STEP  2253 IN FLOW TIME STEP     1 STRESS PERIOD     3
      3 TOTAL ITERATIONS



 >>>>>>>>>>>>>>>>>>>>>>>>>>>>>>>>>>>>>>>>>>>>>>>>>>>>>>>FOR COMPONENT NO. 01<<<<<<<<<<<<<<<<<<<<<<<<<<<<<<<<<<<<<<<<<<<<<<<<<<<<<<<


                                            -------------------------------------------
                                                      TRANSPORT STEP NO. 2253
                                            -------------------------------------------

 TOTAL ELAPSED TIME SINCE BEGINNING OF SIMULATION =   72.16000    D   
 .....................................................................

                     CUMULATIVE MASS BUDGETS AT END OF TRANSPORT STEP 2253, TIME STEP    1, STRESS PERIOD    3
                     -----------------------------------------------------------------------------------------

                                                             IN                           OUT
                                                      ----------------             ----------------
                               CONSTANT CONCENTRATION:    0.000000                    0.000000    
                                        CONSTANT HEAD:    0.000000                  -0.3848062E-01
                                                WELLS:   0.4453236E-01                0.000000    
                               MASS STOR (FLOW MODEL):    0.000000                    0.000000    
                                MASS STORAGE (SOLUTE):   0.1991740E-04              -0.6073059E-02
                            ---------------------------------------------------------------------------
                                              [TOTAL]:   0.4455228E-01 KG           -0.4455367E-01 KG  

                                                          NET (IN - OUT):  -0.1393259E-05
                                                   DISCREPANCY (PERCENT):  -0.3127195E-02
     1 CALLS TO GCG PACKAGE FOR TRANSPORT TIME STEP  2254 IN FLOW TIME STEP     1 STRESS PERIOD     3
      4 TOTAL ITERATIONS
     1 CALLS TO GCG PACKAGE FOR TRANSPORT TIME STEP  2255 IN FLOW TIME STEP     1 STRESS PERIOD     3
      4 TOTAL ITERATIONS
     1 CALLS TO GCG PACKAGE FOR TRANSPORT TIME STEP  2256 IN FLOW TIME STEP     1 STRESS PERIOD     3
      4 TOTAL ITERATIONS
     1 CALLS TO GCG PACKAGE FOR TRANSPORT TIME STEP  2257 IN FLOW TIME STEP     1 STRESS PERIOD     3
      4 TOTAL ITERATIONS
     1 CALLS TO GCG PACKAGE FOR TRANSPORT TIME STEP  2258 IN FLOW TIME STEP     1 STRESS PERIOD     3
      4 TOTAL ITERATIONS
     1 CALLS TO GCG PACKAGE FOR TRANSPORT TIME STEP  2259 IN FLOW TIME STEP     1 STRESS PERIOD     3
      4 TOTAL ITERATIONS
     1 CALLS TO GCG PACKAGE FOR TRANSPORT TIME STEP  2260 IN FLOW TIME STEP     1 STRESS PERIOD     3
      4 TOTAL ITERATIONS
     1 CALLS TO GCG PACKAGE FOR TRANSPORT TIME STEP  2261 IN FLOW TIME STEP     1 STRESS PERIOD     3
      4 TOTAL ITERATIONS
     1 CALLS TO GCG PACKAGE FOR TRANSPORT TIME STEP  2262 IN FLOW TIME STEP     1 STRESS PERIOD     3
      4 TOTAL ITERATIONS
     1 CALLS TO GCG PACKAGE FOR TRANSPORT TIME STEP  2263 IN FLOW TIME STEP     1 STRESS PERIOD     3
      4 TOTAL ITERATIONS
     1 CALLS TO GCG PACKAGE FOR TRANSPORT TIME STEP  2264 IN FLOW TIME STEP     1 STRESS PERIOD     3
      4 TOTAL ITERATIONS
     1 CALLS TO GCG PACKAGE FOR TRANSPORT TIME STEP  2265 IN FLOW TIME STEP     1 STRESS PERIOD     3
      4 TOTAL ITERATIONS
     1 CALLS TO GCG PACKAGE FOR TRANSPORT TIME STEP  2266 IN FLOW TIME STEP     1 STRESS PERIOD     3
      4 TOTAL ITERATIONS
     1 CALLS TO GCG PACKAGE FOR TRANSPORT TIME STEP  2267 IN FLOW TIME STEP     1 STRESS PERIOD     3
      4 TOTAL ITERATIONS
     1 CALLS TO GCG PACKAGE FOR TRANSPORT TIME STEP  2268 IN FLOW TIME STEP     1 STRESS PERIOD     3
      4 TOTAL ITERATIONS
     1 CALLS TO GCG PACKAGE FOR TRANSPORT TIME STEP  2269 IN FLOW TIME STEP     1 STRESS PERIOD     3
      4 TOTAL ITERATIONS
     1 CALLS TO GCG PACKAGE FOR TRANSPORT TIME STEP  2270 IN FLOW TIME STEP     1 STRESS PERIOD     3
      4 TOTAL ITERATIONS
     1 CALLS TO GCG PACKAGE FOR TRANSPORT TIME STEP  2271 IN FLOW TIME STEP     1 STRESS PERIOD     3
      4 TOTAL ITERATIONS
     1 CALLS TO GCG PACKAGE FOR TRANSPORT TIME STEP  2272 IN FLOW TIME STEP     1 STRESS PERIOD     3
      4 TOTAL ITERATIONS
     1 CALLS TO GCG PACKAGE FOR TRANSPORT TIME STEP  2273 IN FLOW TIME STEP     1 STRESS PERIOD     3
      4 TOTAL ITERATIONS
     1 CALLS TO GCG PACKAGE FOR TRANSPORT TIME STEP  2274 IN FLOW TIME STEP     1 STRESS PERIOD     3
      4 TOTAL ITERATIONS
     1 CALLS TO GCG PACKAGE FOR TRANSPORT TIME STEP  2275 IN FLOW TIME STEP     1 STRESS PERIOD     3
      4 TOTAL ITERATIONS
     1 CALLS TO GCG PACKAGE FOR TRANSPORT TIME STEP  2276 IN FLOW TIME STEP     1 STRESS PERIOD     3
      4 TOTAL ITERATIONS
     1 CALLS TO GCG PACKAGE FOR TRANSPORT TIME STEP  2277 IN FLOW TIME STEP     1 STRESS PERIOD     3
      4 TOTAL ITERATIONS
     1 CALLS TO GCG PACKAGE FOR TRANSPORT TIME STEP  2278 IN FLOW TIME STEP     1 STRESS PERIOD     3
      4 TOTAL ITERATIONS
     1 CALLS TO GCG PACKAGE FOR TRANSPORT TIME STEP  2279 IN FLOW TIME STEP     1 STRESS PERIOD     3
      4 TOTAL ITERATIONS
     1 CALLS TO GCG PACKAGE FOR TRANSPORT TIME STEP  2280 IN FLOW TIME STEP     1 STRESS PERIOD     3
      4 TOTAL ITERATIONS
     1 CALLS TO GCG PACKAGE FOR TRANSPORT TIME STEP  2281 IN FLOW TIME STEP     1 STRESS PERIOD     3
      4 TOTAL ITERATIONS
     1 CALLS TO GCG PACKAGE FOR TRANSPORT TIME STEP  2282 IN FLOW TIME STEP     1 STRESS PERIOD     3
      4 TOTAL ITERATIONS
     1 CALLS TO GCG PACKAGE FOR TRANSPORT TIME STEP  2283 IN FLOW TIME STEP     1 STRESS PERIOD     3
      4 TOTAL ITERATIONS
     1 CALLS TO GCG PACKAGE FOR TRANSPORT TIME STEP  2284 IN FLOW TIME STEP     1 STRESS PERIOD     3
      4 TOTAL ITERATIONS
     1 CALLS TO GCG PACKAGE FOR TRANSPORT TIME STEP  2285 IN FLOW TIME STEP     1 STRESS PERIOD     3
      4 TOTAL ITERATIONS
     1 CALLS TO GCG PACKAGE FOR TRANSPORT TIME STEP  2286 IN FLOW TIME STEP     1 STRESS PERIOD     3
      4 TOTAL ITERATIONS
     1 CALLS TO GCG PACKAGE FOR TRANSPORT TIME STEP  2287 IN FLOW TIME STEP     1 STRESS PERIOD     3
      4 TOTAL ITERATIONS
     1 CALLS TO GCG PACKAGE FOR TRANSPORT TIME STEP  2288 IN FLOW TIME STEP     1 STRESS PERIOD     3
      4 TOTAL ITERATIONS
     1 CALLS TO GCG PACKAGE FOR TRANSPORT TIME STEP  2289 IN FLOW TIME STEP     1 STRESS PERIOD     3
      4 TOTAL ITERATIONS
     1 CALLS TO GCG PACKAGE FOR TRANSPORT TIME STEP  2290 IN FLOW TIME STEP     1 STRESS PERIOD     3
      4 TOTAL ITERATIONS
     1 CALLS TO GCG PACKAGE FOR TRANSPORT TIME STEP  2291 IN FLOW TIME STEP     1 STRESS PERIOD     3
      4 TOTAL ITERATIONS
     1 CALLS TO GCG PACKAGE FOR TRANSPORT TIME STEP  2292 IN FLOW TIME STEP     1 STRESS PERIOD     3
      4 TOTAL ITERATIONS
     1 CALLS TO GCG PACKAGE FOR TRANSPORT TIME STEP  2293 IN FLOW TIME STEP     1 STRESS PERIOD     3
      4 TOTAL ITERATIONS
     1 CALLS TO GCG PACKAGE FOR TRANSPORT TIME STEP  2294 IN FLOW TIME STEP     1 STRESS PERIOD     3
      4 TOTAL ITERATIONS
     1 CALLS TO GCG PACKAGE FOR TRANSPORT TIME STEP  2295 IN FLOW TIME STEP     1 STRESS PERIOD     3
      4 TOTAL ITERATIONS
     1 CALLS TO GCG PACKAGE FOR TRANSPORT TIME STEP  2296 IN FLOW TIME STEP     1 STRESS PERIOD     3
      4 TOTAL ITERATIONS
     1 CALLS TO GCG PACKAGE FOR TRANSPORT TIME STEP  2297 IN FLOW TIME STEP     1 STRESS PERIOD     3
      4 TOTAL ITERATIONS
     1 CALLS TO GCG PACKAGE FOR TRANSPORT TIME STEP  2298 IN FLOW TIME STEP     1 STRESS PERIOD     3
      4 TOTAL ITERATIONS
     1 CALLS TO GCG PACKAGE FOR TRANSPORT TIME STEP  2299 IN FLOW TIME STEP     1 STRESS PERIOD     3
      3 TOTAL ITERATIONS



 >>>>>>>>>>>>>>>>>>>>>>>>>>>>>>>>>>>>>>>>>>>>>>>>>>>>>>>FOR COMPONENT NO. 01<<<<<<<<<<<<<<<<<<<<<<<<<<<<<<<<<<<<<<<<<<<<<<<<<<<<<<<


                                            -------------------------------------------
                                                      TRANSPORT STEP NO. 2299
                                            -------------------------------------------

 TOTAL ELAPSED TIME SINCE BEGINNING OF SIMULATION =   72.98000    D   
 .....................................................................

                     CUMULATIVE MASS BUDGETS AT END OF TRANSPORT STEP 2299, TIME STEP    1, STRESS PERIOD    3
                     -----------------------------------------------------------------------------------------

                                                             IN                           OUT
                                                      ----------------             ----------------
                               CONSTANT CONCENTRATION:    0.000000                    0.000000    
                                        CONSTANT HEAD:    0.000000                  -0.3898619E-01
                                                WELLS:   0.4503845E-01                0.000000    
                               MASS STOR (FLOW MODEL):    0.000000                    0.000000    
                                MASS STORAGE (SOLUTE):   0.1994517E-04              -0.6073663E-02
                            ---------------------------------------------------------------------------
                                              [TOTAL]:   0.4505839E-01 KG           -0.4505986E-01 KG  

                                                          NET (IN - OUT):  -0.1467764E-05
                                                   DISCREPANCY (PERCENT):  -0.3257419E-02
     1 CALLS TO GCG PACKAGE FOR TRANSPORT TIME STEP  2300 IN FLOW TIME STEP     1 STRESS PERIOD     3
      4 TOTAL ITERATIONS
     1 CALLS TO GCG PACKAGE FOR TRANSPORT TIME STEP  2301 IN FLOW TIME STEP     1 STRESS PERIOD     3
      4 TOTAL ITERATIONS
     1 CALLS TO GCG PACKAGE FOR TRANSPORT TIME STEP  2302 IN FLOW TIME STEP     1 STRESS PERIOD     3
      4 TOTAL ITERATIONS
     1 CALLS TO GCG PACKAGE FOR TRANSPORT TIME STEP  2303 IN FLOW TIME STEP     1 STRESS PERIOD     3
      4 TOTAL ITERATIONS
     1 CALLS TO GCG PACKAGE FOR TRANSPORT TIME STEP  2304 IN FLOW TIME STEP     1 STRESS PERIOD     3
      4 TOTAL ITERATIONS
     1 CALLS TO GCG PACKAGE FOR TRANSPORT TIME STEP  2305 IN FLOW TIME STEP     1 STRESS PERIOD     3
      4 TOTAL ITERATIONS
     1 CALLS TO GCG PACKAGE FOR TRANSPORT TIME STEP  2306 IN FLOW TIME STEP     1 STRESS PERIOD     3
      4 TOTAL ITERATIONS
     1 CALLS TO GCG PACKAGE FOR TRANSPORT TIME STEP  2307 IN FLOW TIME STEP     1 STRESS PERIOD     3
      4 TOTAL ITERATIONS
     1 CALLS TO GCG PACKAGE FOR TRANSPORT TIME STEP  2308 IN FLOW TIME STEP     1 STRESS PERIOD     3
      4 TOTAL ITERATIONS
     1 CALLS TO GCG PACKAGE FOR TRANSPORT TIME STEP  2309 IN FLOW TIME STEP     1 STRESS PERIOD     3
      4 TOTAL ITERATIONS
     1 CALLS TO GCG PACKAGE FOR TRANSPORT TIME STEP  2310 IN FLOW TIME STEP     1 STRESS PERIOD     3
      4 TOTAL ITERATIONS
     1 CALLS TO GCG PACKAGE FOR TRANSPORT TIME STEP  2311 IN FLOW TIME STEP     1 STRESS PERIOD     3
      4 TOTAL ITERATIONS
     1 CALLS TO GCG PACKAGE FOR TRANSPORT TIME STEP  2312 IN FLOW TIME STEP     1 STRESS PERIOD     3
      4 TOTAL ITERATIONS
     1 CALLS TO GCG PACKAGE FOR TRANSPORT TIME STEP  2313 IN FLOW TIME STEP     1 STRESS PERIOD     3
      4 TOTAL ITERATIONS
     1 CALLS TO GCG PACKAGE FOR TRANSPORT TIME STEP  2314 IN FLOW TIME STEP     1 STRESS PERIOD     3
      4 TOTAL ITERATIONS
     1 CALLS TO GCG PACKAGE FOR TRANSPORT TIME STEP  2315 IN FLOW TIME STEP     1 STRESS PERIOD     3
      4 TOTAL ITERATIONS
     1 CALLS TO GCG PACKAGE FOR TRANSPORT TIME STEP  2316 IN FLOW TIME STEP     1 STRESS PERIOD     3
      4 TOTAL ITERATIONS
     1 CALLS TO GCG PACKAGE FOR TRANSPORT TIME STEP  2317 IN FLOW TIME STEP     1 STRESS PERIOD     3
      4 TOTAL ITERATIONS
     1 CALLS TO GCG PACKAGE FOR TRANSPORT TIME STEP  2318 IN FLOW TIME STEP     1 STRESS PERIOD     3
      4 TOTAL ITERATIONS
     1 CALLS TO GCG PACKAGE FOR TRANSPORT TIME STEP  2319 IN FLOW TIME STEP     1 STRESS PERIOD     3
      4 TOTAL ITERATIONS
     1 CALLS TO GCG PACKAGE FOR TRANSPORT TIME STEP  2320 IN FLOW TIME STEP     1 STRESS PERIOD     3
      4 TOTAL ITERATIONS
     1 CALLS TO GCG PACKAGE FOR TRANSPORT TIME STEP  2321 IN FLOW TIME STEP     1 STRESS PERIOD     3
      4 TOTAL ITERATIONS
     1 CALLS TO GCG PACKAGE FOR TRANSPORT TIME STEP  2322 IN FLOW TIME STEP     1 STRESS PERIOD     3
      4 TOTAL ITERATIONS
     1 CALLS TO GCG PACKAGE FOR TRANSPORT TIME STEP  2323 IN FLOW TIME STEP     1 STRESS PERIOD     3
      4 TOTAL ITERATIONS
     1 CALLS TO GCG PACKAGE FOR TRANSPORT TIME STEP  2324 IN FLOW TIME STEP     1 STRESS PERIOD     3
      4 TOTAL ITERATIONS
     1 CALLS TO GCG PACKAGE FOR TRANSPORT TIME STEP  2325 IN FLOW TIME STEP     1 STRESS PERIOD     3
      4 TOTAL ITERATIONS
     1 CALLS TO GCG PACKAGE FOR TRANSPORT TIME STEP  2326 IN FLOW TIME STEP     1 STRESS PERIOD     3
      4 TOTAL ITERATIONS
     1 CALLS TO GCG PACKAGE FOR TRANSPORT TIME STEP  2327 IN FLOW TIME STEP     1 STRESS PERIOD     3
      4 TOTAL ITERATIONS
     1 CALLS TO GCG PACKAGE FOR TRANSPORT TIME STEP  2328 IN FLOW TIME STEP     1 STRESS PERIOD     3
      4 TOTAL ITERATIONS
     1 CALLS TO GCG PACKAGE FOR TRANSPORT TIME STEP  2329 IN FLOW TIME STEP     1 STRESS PERIOD     3
      4 TOTAL ITERATIONS
     1 CALLS TO GCG PACKAGE FOR TRANSPORT TIME STEP  2330 IN FLOW TIME STEP     1 STRESS PERIOD     3
      4 TOTAL ITERATIONS
     1 CALLS TO GCG PACKAGE FOR TRANSPORT TIME STEP  2331 IN FLOW TIME STEP     1 STRESS PERIOD     3
      4 TOTAL ITERATIONS
     1 CALLS TO GCG PACKAGE FOR TRANSPORT TIME STEP  2332 IN FLOW TIME STEP     1 STRESS PERIOD     3
      4 TOTAL ITERATIONS
     1 CALLS TO GCG PACKAGE FOR TRANSPORT TIME STEP  2333 IN FLOW TIME STEP     1 STRESS PERIOD     3
      4 TOTAL ITERATIONS
     1 CALLS TO GCG PACKAGE FOR TRANSPORT TIME STEP  2334 IN FLOW TIME STEP     1 STRESS PERIOD     3
      4 TOTAL ITERATIONS
     1 CALLS TO GCG PACKAGE FOR TRANSPORT TIME STEP  2335 IN FLOW TIME STEP     1 STRESS PERIOD     3
      4 TOTAL ITERATIONS
     1 CALLS TO GCG PACKAGE FOR TRANSPORT TIME STEP  2336 IN FLOW TIME STEP     1 STRESS PERIOD     3
      4 TOTAL ITERATIONS
     1 CALLS TO GCG PACKAGE FOR TRANSPORT TIME STEP  2337 IN FLOW TIME STEP     1 STRESS PERIOD     3
      4 TOTAL ITERATIONS
     1 CALLS TO GCG PACKAGE FOR TRANSPORT TIME STEP  2338 IN FLOW TIME STEP     1 STRESS PERIOD     3
      4 TOTAL ITERATIONS
     1 CALLS TO GCG PACKAGE FOR TRANSPORT TIME STEP  2339 IN FLOW TIME STEP     1 STRESS PERIOD     3
      4 TOTAL ITERATIONS
     1 CALLS TO GCG PACKAGE FOR TRANSPORT TIME STEP  2340 IN FLOW TIME STEP     1 STRESS PERIOD     3
      4 TOTAL ITERATIONS
     1 CALLS TO GCG PACKAGE FOR TRANSPORT TIME STEP  2341 IN FLOW TIME STEP     1 STRESS PERIOD     3
      4 TOTAL ITERATIONS
     1 CALLS TO GCG PACKAGE FOR TRANSPORT TIME STEP  2342 IN FLOW TIME STEP     1 STRESS PERIOD     3
      4 TOTAL ITERATIONS
     1 CALLS TO GCG PACKAGE FOR TRANSPORT TIME STEP  2343 IN FLOW TIME STEP     1 STRESS PERIOD     3
      4 TOTAL ITERATIONS
     1 CALLS TO GCG PACKAGE FOR TRANSPORT TIME STEP  2344 IN FLOW TIME STEP     1 STRESS PERIOD     3
      4 TOTAL ITERATIONS
     1 CALLS TO GCG PACKAGE FOR TRANSPORT TIME STEP  2345 IN FLOW TIME STEP     1 STRESS PERIOD     3
      3 TOTAL ITERATIONS



 >>>>>>>>>>>>>>>>>>>>>>>>>>>>>>>>>>>>>>>>>>>>>>>>>>>>>>>FOR COMPONENT NO. 01<<<<<<<<<<<<<<<<<<<<<<<<<<<<<<<<<<<<<<<<<<<<<<<<<<<<<<<


                                            -------------------------------------------
                                                      TRANSPORT STEP NO. 2345
                                            -------------------------------------------

 TOTAL ELAPSED TIME SINCE BEGINNING OF SIMULATION =   73.80000    D   
 .....................................................................

                     CUMULATIVE MASS BUDGETS AT END OF TRANSPORT STEP 2345, TIME STEP    1, STRESS PERIOD    3
                     -----------------------------------------------------------------------------------------

                                                             IN                           OUT
                                                      ----------------             ----------------
                               CONSTANT CONCENTRATION:    0.000000                    0.000000    
                                        CONSTANT HEAD:    0.000000                  -0.3949177E-01
                                                WELLS:   0.4554453E-01                0.000000    
                               MASS STOR (FLOW MODEL):    0.000000                    0.000000    
                                MASS STORAGE (SOLUTE):   0.1997297E-04              -0.6074231E-02
                            ---------------------------------------------------------------------------
                                              [TOTAL]:   0.4556450E-01 KG           -0.4556600E-01 KG  

                                                          NET (IN - OUT):  -0.1501292E-05
                                                   DISCREPANCY (PERCENT):  -0.3294817E-02
     1 CALLS TO GCG PACKAGE FOR TRANSPORT TIME STEP  2346 IN FLOW TIME STEP     1 STRESS PERIOD     3
      4 TOTAL ITERATIONS
     1 CALLS TO GCG PACKAGE FOR TRANSPORT TIME STEP  2347 IN FLOW TIME STEP     1 STRESS PERIOD     3
      4 TOTAL ITERATIONS
     1 CALLS TO GCG PACKAGE FOR TRANSPORT TIME STEP  2348 IN FLOW TIME STEP     1 STRESS PERIOD     3
      4 TOTAL ITERATIONS
     1 CALLS TO GCG PACKAGE FOR TRANSPORT TIME STEP  2349 IN FLOW TIME STEP     1 STRESS PERIOD     3
      4 TOTAL ITERATIONS
     1 CALLS TO GCG PACKAGE FOR TRANSPORT TIME STEP  2350 IN FLOW TIME STEP     1 STRESS PERIOD     3
      4 TOTAL ITERATIONS
     1 CALLS TO GCG PACKAGE FOR TRANSPORT TIME STEP  2351 IN FLOW TIME STEP     1 STRESS PERIOD     3
      4 TOTAL ITERATIONS
     1 CALLS TO GCG PACKAGE FOR TRANSPORT TIME STEP  2352 IN FLOW TIME STEP     1 STRESS PERIOD     3
      4 TOTAL ITERATIONS
     1 CALLS TO GCG PACKAGE FOR TRANSPORT TIME STEP  2353 IN FLOW TIME STEP     1 STRESS PERIOD     3
      4 TOTAL ITERATIONS
     1 CALLS TO GCG PACKAGE FOR TRANSPORT TIME STEP  2354 IN FLOW TIME STEP     1 STRESS PERIOD     3
      4 TOTAL ITERATIONS
     1 CALLS TO GCG PACKAGE FOR TRANSPORT TIME STEP  2355 IN FLOW TIME STEP     1 STRESS PERIOD     3
      4 TOTAL ITERATIONS
     1 CALLS TO GCG PACKAGE FOR TRANSPORT TIME STEP  2356 IN FLOW TIME STEP     1 STRESS PERIOD     3
      4 TOTAL ITERATIONS
     1 CALLS TO GCG PACKAGE FOR TRANSPORT TIME STEP  2357 IN FLOW TIME STEP     1 STRESS PERIOD     3
      4 TOTAL ITERATIONS
     1 CALLS TO GCG PACKAGE FOR TRANSPORT TIME STEP  2358 IN FLOW TIME STEP     1 STRESS PERIOD     3
      4 TOTAL ITERATIONS
     1 CALLS TO GCG PACKAGE FOR TRANSPORT TIME STEP  2359 IN FLOW TIME STEP     1 STRESS PERIOD     3
      4 TOTAL ITERATIONS
     1 CALLS TO GCG PACKAGE FOR TRANSPORT TIME STEP  2360 IN FLOW TIME STEP     1 STRESS PERIOD     3
      4 TOTAL ITERATIONS
     1 CALLS TO GCG PACKAGE FOR TRANSPORT TIME STEP  2361 IN FLOW TIME STEP     1 STRESS PERIOD     3
      4 TOTAL ITERATIONS
     1 CALLS TO GCG PACKAGE FOR TRANSPORT TIME STEP  2362 IN FLOW TIME STEP     1 STRESS PERIOD     3
      4 TOTAL ITERATIONS
     1 CALLS TO GCG PACKAGE FOR TRANSPORT TIME STEP  2363 IN FLOW TIME STEP     1 STRESS PERIOD     3
      4 TOTAL ITERATIONS
     1 CALLS TO GCG PACKAGE FOR TRANSPORT TIME STEP  2364 IN FLOW TIME STEP     1 STRESS PERIOD     3
      4 TOTAL ITERATIONS
     1 CALLS TO GCG PACKAGE FOR TRANSPORT TIME STEP  2365 IN FLOW TIME STEP     1 STRESS PERIOD     3
      4 TOTAL ITERATIONS
     1 CALLS TO GCG PACKAGE FOR TRANSPORT TIME STEP  2366 IN FLOW TIME STEP     1 STRESS PERIOD     3
      4 TOTAL ITERATIONS
     1 CALLS TO GCG PACKAGE FOR TRANSPORT TIME STEP  2367 IN FLOW TIME STEP     1 STRESS PERIOD     3
      4 TOTAL ITERATIONS
     1 CALLS TO GCG PACKAGE FOR TRANSPORT TIME STEP  2368 IN FLOW TIME STEP     1 STRESS PERIOD     3
      4 TOTAL ITERATIONS
     1 CALLS TO GCG PACKAGE FOR TRANSPORT TIME STEP  2369 IN FLOW TIME STEP     1 STRESS PERIOD     3
      4 TOTAL ITERATIONS
     1 CALLS TO GCG PACKAGE FOR TRANSPORT TIME STEP  2370 IN FLOW TIME STEP     1 STRESS PERIOD     3
      4 TOTAL ITERATIONS
     1 CALLS TO GCG PACKAGE FOR TRANSPORT TIME STEP  2371 IN FLOW TIME STEP     1 STRESS PERIOD     3
      4 TOTAL ITERATIONS
     1 CALLS TO GCG PACKAGE FOR TRANSPORT TIME STEP  2372 IN FLOW TIME STEP     1 STRESS PERIOD     3
      4 TOTAL ITERATIONS
     1 CALLS TO GCG PACKAGE FOR TRANSPORT TIME STEP  2373 IN FLOW TIME STEP     1 STRESS PERIOD     3
      4 TOTAL ITERATIONS
     1 CALLS TO GCG PACKAGE FOR TRANSPORT TIME STEP  2374 IN FLOW TIME STEP     1 STRESS PERIOD     3
      4 TOTAL ITERATIONS
     1 CALLS TO GCG PACKAGE FOR TRANSPORT TIME STEP  2375 IN FLOW TIME STEP     1 STRESS PERIOD     3
      4 TOTAL ITERATIONS
     1 CALLS TO GCG PACKAGE FOR TRANSPORT TIME STEP  2376 IN FLOW TIME STEP     1 STRESS PERIOD     3
      4 TOTAL ITERATIONS
     1 CALLS TO GCG PACKAGE FOR TRANSPORT TIME STEP  2377 IN FLOW TIME STEP     1 STRESS PERIOD     3
      4 TOTAL ITERATIONS
     1 CALLS TO GCG PACKAGE FOR TRANSPORT TIME STEP  2378 IN FLOW TIME STEP     1 STRESS PERIOD     3
      4 TOTAL ITERATIONS
     1 CALLS TO GCG PACKAGE FOR TRANSPORT TIME STEP  2379 IN FLOW TIME STEP     1 STRESS PERIOD     3
      4 TOTAL ITERATIONS
     1 CALLS TO GCG PACKAGE FOR TRANSPORT TIME STEP  2380 IN FLOW TIME STEP     1 STRESS PERIOD     3
      4 TOTAL ITERATIONS
     1 CALLS TO GCG PACKAGE FOR TRANSPORT TIME STEP  2381 IN FLOW TIME STEP     1 STRESS PERIOD     3
      4 TOTAL ITERATIONS
     1 CALLS TO GCG PACKAGE FOR TRANSPORT TIME STEP  2382 IN FLOW TIME STEP     1 STRESS PERIOD     3
      4 TOTAL ITERATIONS
     1 CALLS TO GCG PACKAGE FOR TRANSPORT TIME STEP  2383 IN FLOW TIME STEP     1 STRESS PERIOD     3
      4 TOTAL ITERATIONS
     1 CALLS TO GCG PACKAGE FOR TRANSPORT TIME STEP  2384 IN FLOW TIME STEP     1 STRESS PERIOD     3
      4 TOTAL ITERATIONS
     1 CALLS TO GCG PACKAGE FOR TRANSPORT TIME STEP  2385 IN FLOW TIME STEP     1 STRESS PERIOD     3
      4 TOTAL ITERATIONS
     1 CALLS TO GCG PACKAGE FOR TRANSPORT TIME STEP  2386 IN FLOW TIME STEP     1 STRESS PERIOD     3
      4 TOTAL ITERATIONS
     1 CALLS TO GCG PACKAGE FOR TRANSPORT TIME STEP  2387 IN FLOW TIME STEP     1 STRESS PERIOD     3
      4 TOTAL ITERATIONS
     1 CALLS TO GCG PACKAGE FOR TRANSPORT TIME STEP  2388 IN FLOW TIME STEP     1 STRESS PERIOD     3
      4 TOTAL ITERATIONS
     1 CALLS TO GCG PACKAGE FOR TRANSPORT TIME STEP  2389 IN FLOW TIME STEP     1 STRESS PERIOD     3
      4 TOTAL ITERATIONS
     1 CALLS TO GCG PACKAGE FOR TRANSPORT TIME STEP  2390 IN FLOW TIME STEP     1 STRESS PERIOD     3
      4 TOTAL ITERATIONS
     1 CALLS TO GCG PACKAGE FOR TRANSPORT TIME STEP  2391 IN FLOW TIME STEP     1 STRESS PERIOD     3
      3 TOTAL ITERATIONS



 >>>>>>>>>>>>>>>>>>>>>>>>>>>>>>>>>>>>>>>>>>>>>>>>>>>>>>>FOR COMPONENT NO. 01<<<<<<<<<<<<<<<<<<<<<<<<<<<<<<<<<<<<<<<<<<<<<<<<<<<<<<<


                                            -------------------------------------------
                                                      TRANSPORT STEP NO. 2391
                                            -------------------------------------------

 TOTAL ELAPSED TIME SINCE BEGINNING OF SIMULATION =   74.62000    D   
 .....................................................................

                     CUMULATIVE MASS BUDGETS AT END OF TRANSPORT STEP 2391, TIME STEP    1, STRESS PERIOD    3
                     -----------------------------------------------------------------------------------------

                                                             IN                           OUT
                                                      ----------------             ----------------
                               CONSTANT CONCENTRATION:    0.000000                    0.000000    
                                        CONSTANT HEAD:    0.000000                  -0.3999735E-01
                                                WELLS:   0.4605062E-01                0.000000    
                               MASS STOR (FLOW MODEL):    0.000000                    0.000000    
                                MASS STORAGE (SOLUTE):   0.2000078E-04              -0.6074767E-02
                            ---------------------------------------------------------------------------
                                              [TOTAL]:   0.4607062E-01 KG           -0.4607212E-01 KG  

                                                          NET (IN - OUT):  -0.1501292E-05
                                                   DISCREPANCY (PERCENT):  -0.3258623E-02
     1 CALLS TO GCG PACKAGE FOR TRANSPORT TIME STEP  2392 IN FLOW TIME STEP     1 STRESS PERIOD     3
      4 TOTAL ITERATIONS
     1 CALLS TO GCG PACKAGE FOR TRANSPORT TIME STEP  2393 IN FLOW TIME STEP     1 STRESS PERIOD     3
      4 TOTAL ITERATIONS
     1 CALLS TO GCG PACKAGE FOR TRANSPORT TIME STEP  2394 IN FLOW TIME STEP     1 STRESS PERIOD     3
      4 TOTAL ITERATIONS
     1 CALLS TO GCG PACKAGE FOR TRANSPORT TIME STEP  2395 IN FLOW TIME STEP     1 STRESS PERIOD     3
      4 TOTAL ITERATIONS
     1 CALLS TO GCG PACKAGE FOR TRANSPORT TIME STEP  2396 IN FLOW TIME STEP     1 STRESS PERIOD     3
      4 TOTAL ITERATIONS
     1 CALLS TO GCG PACKAGE FOR TRANSPORT TIME STEP  2397 IN FLOW TIME STEP     1 STRESS PERIOD     3
      4 TOTAL ITERATIONS
     1 CALLS TO GCG PACKAGE FOR TRANSPORT TIME STEP  2398 IN FLOW TIME STEP     1 STRESS PERIOD     3
      4 TOTAL ITERATIONS
     1 CALLS TO GCG PACKAGE FOR TRANSPORT TIME STEP  2399 IN FLOW TIME STEP     1 STRESS PERIOD     3
      4 TOTAL ITERATIONS
     1 CALLS TO GCG PACKAGE FOR TRANSPORT TIME STEP  2400 IN FLOW TIME STEP     1 STRESS PERIOD     3
      4 TOTAL ITERATIONS
     1 CALLS TO GCG PACKAGE FOR TRANSPORT TIME STEP  2401 IN FLOW TIME STEP     1 STRESS PERIOD     3
      4 TOTAL ITERATIONS
     1 CALLS TO GCG PACKAGE FOR TRANSPORT TIME STEP  2402 IN FLOW TIME STEP     1 STRESS PERIOD     3
      4 TOTAL ITERATIONS
     1 CALLS TO GCG PACKAGE FOR TRANSPORT TIME STEP  2403 IN FLOW TIME STEP     1 STRESS PERIOD     3
      4 TOTAL ITERATIONS
     1 CALLS TO GCG PACKAGE FOR TRANSPORT TIME STEP  2404 IN FLOW TIME STEP     1 STRESS PERIOD     3
      4 TOTAL ITERATIONS
     1 CALLS TO GCG PACKAGE FOR TRANSPORT TIME STEP  2405 IN FLOW TIME STEP     1 STRESS PERIOD     3
      4 TOTAL ITERATIONS
     1 CALLS TO GCG PACKAGE FOR TRANSPORT TIME STEP  2406 IN FLOW TIME STEP     1 STRESS PERIOD     3
      4 TOTAL ITERATIONS
     1 CALLS TO GCG PACKAGE FOR TRANSPORT TIME STEP  2407 IN FLOW TIME STEP     1 STRESS PERIOD     3
      4 TOTAL ITERATIONS
     1 CALLS TO GCG PACKAGE FOR TRANSPORT TIME STEP  2408 IN FLOW TIME STEP     1 STRESS PERIOD     3
      4 TOTAL ITERATIONS
     1 CALLS TO GCG PACKAGE FOR TRANSPORT TIME STEP  2409 IN FLOW TIME STEP     1 STRESS PERIOD     3
      4 TOTAL ITERATIONS
     1 CALLS TO GCG PACKAGE FOR TRANSPORT TIME STEP  2410 IN FLOW TIME STEP     1 STRESS PERIOD     3
      4 TOTAL ITERATIONS
     1 CALLS TO GCG PACKAGE FOR TRANSPORT TIME STEP  2411 IN FLOW TIME STEP     1 STRESS PERIOD     3
      4 TOTAL ITERATIONS
     1 CALLS TO GCG PACKAGE FOR TRANSPORT TIME STEP  2412 IN FLOW TIME STEP     1 STRESS PERIOD     3
      4 TOTAL ITERATIONS
     1 CALLS TO GCG PACKAGE FOR TRANSPORT TIME STEP  2413 IN FLOW TIME STEP     1 STRESS PERIOD     3
      4 TOTAL ITERATIONS
     1 CALLS TO GCG PACKAGE FOR TRANSPORT TIME STEP  2414 IN FLOW TIME STEP     1 STRESS PERIOD     3
      4 TOTAL ITERATIONS
     1 CALLS TO GCG PACKAGE FOR TRANSPORT TIME STEP  2415 IN FLOW TIME STEP     1 STRESS PERIOD     3
      4 TOTAL ITERATIONS
     1 CALLS TO GCG PACKAGE FOR TRANSPORT TIME STEP  2416 IN FLOW TIME STEP     1 STRESS PERIOD     3
      4 TOTAL ITERATIONS
     1 CALLS TO GCG PACKAGE FOR TRANSPORT TIME STEP  2417 IN FLOW TIME STEP     1 STRESS PERIOD     3
      4 TOTAL ITERATIONS
     1 CALLS TO GCG PACKAGE FOR TRANSPORT TIME STEP  2418 IN FLOW TIME STEP     1 STRESS PERIOD     3
      4 TOTAL ITERATIONS
     1 CALLS TO GCG PACKAGE FOR TRANSPORT TIME STEP  2419 IN FLOW TIME STEP     1 STRESS PERIOD     3
      4 TOTAL ITERATIONS
     1 CALLS TO GCG PACKAGE FOR TRANSPORT TIME STEP  2420 IN FLOW TIME STEP     1 STRESS PERIOD     3
      4 TOTAL ITERATIONS
     1 CALLS TO GCG PACKAGE FOR TRANSPORT TIME STEP  2421 IN FLOW TIME STEP     1 STRESS PERIOD     3
      4 TOTAL ITERATIONS
     1 CALLS TO GCG PACKAGE FOR TRANSPORT TIME STEP  2422 IN FLOW TIME STEP     1 STRESS PERIOD     3
      4 TOTAL ITERATIONS
     1 CALLS TO GCG PACKAGE FOR TRANSPORT TIME STEP  2423 IN FLOW TIME STEP     1 STRESS PERIOD     3
      4 TOTAL ITERATIONS
     1 CALLS TO GCG PACKAGE FOR TRANSPORT TIME STEP  2424 IN FLOW TIME STEP     1 STRESS PERIOD     3
      4 TOTAL ITERATIONS
     1 CALLS TO GCG PACKAGE FOR TRANSPORT TIME STEP  2425 IN FLOW TIME STEP     1 STRESS PERIOD     3
      4 TOTAL ITERATIONS
     1 CALLS TO GCG PACKAGE FOR TRANSPORT TIME STEP  2426 IN FLOW TIME STEP     1 STRESS PERIOD     3
      4 TOTAL ITERATIONS
     1 CALLS TO GCG PACKAGE FOR TRANSPORT TIME STEP  2427 IN FLOW TIME STEP     1 STRESS PERIOD     3
      4 TOTAL ITERATIONS
     1 CALLS TO GCG PACKAGE FOR TRANSPORT TIME STEP  2428 IN FLOW TIME STEP     1 STRESS PERIOD     3
      4 TOTAL ITERATIONS
     1 CALLS TO GCG PACKAGE FOR TRANSPORT TIME STEP  2429 IN FLOW TIME STEP     1 STRESS PERIOD     3
      4 TOTAL ITERATIONS
     1 CALLS TO GCG PACKAGE FOR TRANSPORT TIME STEP  2430 IN FLOW TIME STEP     1 STRESS PERIOD     3
      4 TOTAL ITERATIONS
     1 CALLS TO GCG PACKAGE FOR TRANSPORT TIME STEP  2431 IN FLOW TIME STEP     1 STRESS PERIOD     3
      4 TOTAL ITERATIONS
     1 CALLS TO GCG PACKAGE FOR TRANSPORT TIME STEP  2432 IN FLOW TIME STEP     1 STRESS PERIOD     3
      4 TOTAL ITERATIONS
     1 CALLS TO GCG PACKAGE FOR TRANSPORT TIME STEP  2433 IN FLOW TIME STEP     1 STRESS PERIOD     3
      4 TOTAL ITERATIONS
     1 CALLS TO GCG PACKAGE FOR TRANSPORT TIME STEP  2434 IN FLOW TIME STEP     1 STRESS PERIOD     3
      4 TOTAL ITERATIONS
     1 CALLS TO GCG PACKAGE FOR TRANSPORT TIME STEP  2435 IN FLOW TIME STEP     1 STRESS PERIOD     3
      4 TOTAL ITERATIONS
     1 CALLS TO GCG PACKAGE FOR TRANSPORT TIME STEP  2436 IN FLOW TIME STEP     1 STRESS PERIOD     3
      4 TOTAL ITERATIONS
     1 CALLS TO GCG PACKAGE FOR TRANSPORT TIME STEP  2437 IN FLOW TIME STEP     1 STRESS PERIOD     3
      3 TOTAL ITERATIONS



 >>>>>>>>>>>>>>>>>>>>>>>>>>>>>>>>>>>>>>>>>>>>>>>>>>>>>>>FOR COMPONENT NO. 01<<<<<<<<<<<<<<<<<<<<<<<<<<<<<<<<<<<<<<<<<<<<<<<<<<<<<<<


                                            -------------------------------------------
                                                      TRANSPORT STEP NO. 2437
                                            -------------------------------------------

 TOTAL ELAPSED TIME SINCE BEGINNING OF SIMULATION =   75.44000    D   
 .....................................................................

                     CUMULATIVE MASS BUDGETS AT END OF TRANSPORT STEP 2437, TIME STEP    1, STRESS PERIOD    3
                     -----------------------------------------------------------------------------------------

                                                             IN                           OUT
                                                      ----------------             ----------------
                               CONSTANT CONCENTRATION:    0.000000                    0.000000    
                                        CONSTANT HEAD:    0.000000                  -0.4050301E-01
                                                WELLS:   0.4655670E-01                0.000000    
                               MASS STOR (FLOW MODEL):    0.000000                    0.000000    
                                MASS STORAGE (SOLUTE):   0.2002860E-04              -0.6075269E-02
                            ---------------------------------------------------------------------------
                                              [TOTAL]:   0.4657673E-01 KG           -0.4657828E-01 KG  

                                                          NET (IN - OUT):  -0.1553446E-05
                                                   DISCREPANCY (PERCENT):  -0.3335185E-02
     1 CALLS TO GCG PACKAGE FOR TRANSPORT TIME STEP  2438 IN FLOW TIME STEP     1 STRESS PERIOD     3
      4 TOTAL ITERATIONS
     1 CALLS TO GCG PACKAGE FOR TRANSPORT TIME STEP  2439 IN FLOW TIME STEP     1 STRESS PERIOD     3
      4 TOTAL ITERATIONS
     1 CALLS TO GCG PACKAGE FOR TRANSPORT TIME STEP  2440 IN FLOW TIME STEP     1 STRESS PERIOD     3
      4 TOTAL ITERATIONS
     1 CALLS TO GCG PACKAGE FOR TRANSPORT TIME STEP  2441 IN FLOW TIME STEP     1 STRESS PERIOD     3
      4 TOTAL ITERATIONS
     1 CALLS TO GCG PACKAGE FOR TRANSPORT TIME STEP  2442 IN FLOW TIME STEP     1 STRESS PERIOD     3
      4 TOTAL ITERATIONS
     1 CALLS TO GCG PACKAGE FOR TRANSPORT TIME STEP  2443 IN FLOW TIME STEP     1 STRESS PERIOD     3
      4 TOTAL ITERATIONS
     1 CALLS TO GCG PACKAGE FOR TRANSPORT TIME STEP  2444 IN FLOW TIME STEP     1 STRESS PERIOD     3
      4 TOTAL ITERATIONS
     1 CALLS TO GCG PACKAGE FOR TRANSPORT TIME STEP  2445 IN FLOW TIME STEP     1 STRESS PERIOD     3
      4 TOTAL ITERATIONS
     1 CALLS TO GCG PACKAGE FOR TRANSPORT TIME STEP  2446 IN FLOW TIME STEP     1 STRESS PERIOD     3
      4 TOTAL ITERATIONS
     1 CALLS TO GCG PACKAGE FOR TRANSPORT TIME STEP  2447 IN FLOW TIME STEP     1 STRESS PERIOD     3
      4 TOTAL ITERATIONS
     1 CALLS TO GCG PACKAGE FOR TRANSPORT TIME STEP  2448 IN FLOW TIME STEP     1 STRESS PERIOD     3
      4 TOTAL ITERATIONS
     1 CALLS TO GCG PACKAGE FOR TRANSPORT TIME STEP  2449 IN FLOW TIME STEP     1 STRESS PERIOD     3
      4 TOTAL ITERATIONS
     1 CALLS TO GCG PACKAGE FOR TRANSPORT TIME STEP  2450 IN FLOW TIME STEP     1 STRESS PERIOD     3
      4 TOTAL ITERATIONS
     1 CALLS TO GCG PACKAGE FOR TRANSPORT TIME STEP  2451 IN FLOW TIME STEP     1 STRESS PERIOD     3
      4 TOTAL ITERATIONS
     1 CALLS TO GCG PACKAGE FOR TRANSPORT TIME STEP  2452 IN FLOW TIME STEP     1 STRESS PERIOD     3
      4 TOTAL ITERATIONS
     1 CALLS TO GCG PACKAGE FOR TRANSPORT TIME STEP  2453 IN FLOW TIME STEP     1 STRESS PERIOD     3
      4 TOTAL ITERATIONS
     1 CALLS TO GCG PACKAGE FOR TRANSPORT TIME STEP  2454 IN FLOW TIME STEP     1 STRESS PERIOD     3
      4 TOTAL ITERATIONS
     1 CALLS TO GCG PACKAGE FOR TRANSPORT TIME STEP  2455 IN FLOW TIME STEP     1 STRESS PERIOD     3
      4 TOTAL ITERATIONS
     1 CALLS TO GCG PACKAGE FOR TRANSPORT TIME STEP  2456 IN FLOW TIME STEP     1 STRESS PERIOD     3
      4 TOTAL ITERATIONS
     1 CALLS TO GCG PACKAGE FOR TRANSPORT TIME STEP  2457 IN FLOW TIME STEP     1 STRESS PERIOD     3
      4 TOTAL ITERATIONS
     1 CALLS TO GCG PACKAGE FOR TRANSPORT TIME STEP  2458 IN FLOW TIME STEP     1 STRESS PERIOD     3
      4 TOTAL ITERATIONS
     1 CALLS TO GCG PACKAGE FOR TRANSPORT TIME STEP  2459 IN FLOW TIME STEP     1 STRESS PERIOD     3
      4 TOTAL ITERATIONS
     1 CALLS TO GCG PACKAGE FOR TRANSPORT TIME STEP  2460 IN FLOW TIME STEP     1 STRESS PERIOD     3
      4 TOTAL ITERATIONS
     1 CALLS TO GCG PACKAGE FOR TRANSPORT TIME STEP  2461 IN FLOW TIME STEP     1 STRESS PERIOD     3
      4 TOTAL ITERATIONS
     1 CALLS TO GCG PACKAGE FOR TRANSPORT TIME STEP  2462 IN FLOW TIME STEP     1 STRESS PERIOD     3
      4 TOTAL ITERATIONS
     1 CALLS TO GCG PACKAGE FOR TRANSPORT TIME STEP  2463 IN FLOW TIME STEP     1 STRESS PERIOD     3
      4 TOTAL ITERATIONS
     1 CALLS TO GCG PACKAGE FOR TRANSPORT TIME STEP  2464 IN FLOW TIME STEP     1 STRESS PERIOD     3
      4 TOTAL ITERATIONS
     1 CALLS TO GCG PACKAGE FOR TRANSPORT TIME STEP  2465 IN FLOW TIME STEP     1 STRESS PERIOD     3
      4 TOTAL ITERATIONS
     1 CALLS TO GCG PACKAGE FOR TRANSPORT TIME STEP  2466 IN FLOW TIME STEP     1 STRESS PERIOD     3
      4 TOTAL ITERATIONS
     1 CALLS TO GCG PACKAGE FOR TRANSPORT TIME STEP  2467 IN FLOW TIME STEP     1 STRESS PERIOD     3
      4 TOTAL ITERATIONS
     1 CALLS TO GCG PACKAGE FOR TRANSPORT TIME STEP  2468 IN FLOW TIME STEP     1 STRESS PERIOD     3
      4 TOTAL ITERATIONS
     1 CALLS TO GCG PACKAGE FOR TRANSPORT TIME STEP  2469 IN FLOW TIME STEP     1 STRESS PERIOD     3
      4 TOTAL ITERATIONS
     1 CALLS TO GCG PACKAGE FOR TRANSPORT TIME STEP  2470 IN FLOW TIME STEP     1 STRESS PERIOD     3
      4 TOTAL ITERATIONS
     1 CALLS TO GCG PACKAGE FOR TRANSPORT TIME STEP  2471 IN FLOW TIME STEP     1 STRESS PERIOD     3
      4 TOTAL ITERATIONS
     1 CALLS TO GCG PACKAGE FOR TRANSPORT TIME STEP  2472 IN FLOW TIME STEP     1 STRESS PERIOD     3
      4 TOTAL ITERATIONS
     1 CALLS TO GCG PACKAGE FOR TRANSPORT TIME STEP  2473 IN FLOW TIME STEP     1 STRESS PERIOD     3
      4 TOTAL ITERATIONS
     1 CALLS TO GCG PACKAGE FOR TRANSPORT TIME STEP  2474 IN FLOW TIME STEP     1 STRESS PERIOD     3
      4 TOTAL ITERATIONS
     1 CALLS TO GCG PACKAGE FOR TRANSPORT TIME STEP  2475 IN FLOW TIME STEP     1 STRESS PERIOD     3
      4 TOTAL ITERATIONS
     1 CALLS TO GCG PACKAGE FOR TRANSPORT TIME STEP  2476 IN FLOW TIME STEP     1 STRESS PERIOD     3
      4 TOTAL ITERATIONS
     1 CALLS TO GCG PACKAGE FOR TRANSPORT TIME STEP  2477 IN FLOW TIME STEP     1 STRESS PERIOD     3
      4 TOTAL ITERATIONS
     1 CALLS TO GCG PACKAGE FOR TRANSPORT TIME STEP  2478 IN FLOW TIME STEP     1 STRESS PERIOD     3
      4 TOTAL ITERATIONS
     1 CALLS TO GCG PACKAGE FOR TRANSPORT TIME STEP  2479 IN FLOW TIME STEP     1 STRESS PERIOD     3
      4 TOTAL ITERATIONS
     1 CALLS TO GCG PACKAGE FOR TRANSPORT TIME STEP  2480 IN FLOW TIME STEP     1 STRESS PERIOD     3
      4 TOTAL ITERATIONS
     1 CALLS TO GCG PACKAGE FOR TRANSPORT TIME STEP  2481 IN FLOW TIME STEP     1 STRESS PERIOD     3
      4 TOTAL ITERATIONS
     1 CALLS TO GCG PACKAGE FOR TRANSPORT TIME STEP  2482 IN FLOW TIME STEP     1 STRESS PERIOD     3
      4 TOTAL ITERATIONS
     1 CALLS TO GCG PACKAGE FOR TRANSPORT TIME STEP  2483 IN FLOW TIME STEP     1 STRESS PERIOD     3
      3 TOTAL ITERATIONS



 >>>>>>>>>>>>>>>>>>>>>>>>>>>>>>>>>>>>>>>>>>>>>>>>>>>>>>>FOR COMPONENT NO. 01<<<<<<<<<<<<<<<<<<<<<<<<<<<<<<<<<<<<<<<<<<<<<<<<<<<<<<<


                                            -------------------------------------------
                                                      TRANSPORT STEP NO. 2483
                                            -------------------------------------------

 TOTAL ELAPSED TIME SINCE BEGINNING OF SIMULATION =   76.26000    D   
 .....................................................................

                     CUMULATIVE MASS BUDGETS AT END OF TRANSPORT STEP 2483, TIME STEP    1, STRESS PERIOD    3
                     -----------------------------------------------------------------------------------------

                                                             IN                           OUT
                                                      ----------------             ----------------
                               CONSTANT CONCENTRATION:    0.000000                    0.000000    
                                        CONSTANT HEAD:    0.000000                  -0.4100876E-01
                                                WELLS:   0.4706278E-01                0.000000    
                               MASS STOR (FLOW MODEL):    0.000000                    0.000000    
                                MASS STORAGE (SOLUTE):   0.2005658E-04              -0.6075742E-02
                            ---------------------------------------------------------------------------
                                              [TOTAL]:   0.4708284E-01 KG           -0.4708450E-01 KG  

                                                          NET (IN - OUT):  -0.1657754E-05
                                                   DISCREPANCY (PERCENT):  -0.3520869E-02
     1 CALLS TO GCG PACKAGE FOR TRANSPORT TIME STEP  2484 IN FLOW TIME STEP     1 STRESS PERIOD     3
      4 TOTAL ITERATIONS
     1 CALLS TO GCG PACKAGE FOR TRANSPORT TIME STEP  2485 IN FLOW TIME STEP     1 STRESS PERIOD     3
      4 TOTAL ITERATIONS
     1 CALLS TO GCG PACKAGE FOR TRANSPORT TIME STEP  2486 IN FLOW TIME STEP     1 STRESS PERIOD     3
      4 TOTAL ITERATIONS
     1 CALLS TO GCG PACKAGE FOR TRANSPORT TIME STEP  2487 IN FLOW TIME STEP     1 STRESS PERIOD     3
      4 TOTAL ITERATIONS
     1 CALLS TO GCG PACKAGE FOR TRANSPORT TIME STEP  2488 IN FLOW TIME STEP     1 STRESS PERIOD     3
      4 TOTAL ITERATIONS
     1 CALLS TO GCG PACKAGE FOR TRANSPORT TIME STEP  2489 IN FLOW TIME STEP     1 STRESS PERIOD     3
      4 TOTAL ITERATIONS
     1 CALLS TO GCG PACKAGE FOR TRANSPORT TIME STEP  2490 IN FLOW TIME STEP     1 STRESS PERIOD     3
      4 TOTAL ITERATIONS
     1 CALLS TO GCG PACKAGE FOR TRANSPORT TIME STEP  2491 IN FLOW TIME STEP     1 STRESS PERIOD     3
      4 TOTAL ITERATIONS
     1 CALLS TO GCG PACKAGE FOR TRANSPORT TIME STEP  2492 IN FLOW TIME STEP     1 STRESS PERIOD     3
      4 TOTAL ITERATIONS
     1 CALLS TO GCG PACKAGE FOR TRANSPORT TIME STEP  2493 IN FLOW TIME STEP     1 STRESS PERIOD     3
      4 TOTAL ITERATIONS
     1 CALLS TO GCG PACKAGE FOR TRANSPORT TIME STEP  2494 IN FLOW TIME STEP     1 STRESS PERIOD     3
      4 TOTAL ITERATIONS
     1 CALLS TO GCG PACKAGE FOR TRANSPORT TIME STEP  2495 IN FLOW TIME STEP     1 STRESS PERIOD     3
      4 TOTAL ITERATIONS
     1 CALLS TO GCG PACKAGE FOR TRANSPORT TIME STEP  2496 IN FLOW TIME STEP     1 STRESS PERIOD     3
      4 TOTAL ITERATIONS
     1 CALLS TO GCG PACKAGE FOR TRANSPORT TIME STEP  2497 IN FLOW TIME STEP     1 STRESS PERIOD     3
      4 TOTAL ITERATIONS
     1 CALLS TO GCG PACKAGE FOR TRANSPORT TIME STEP  2498 IN FLOW TIME STEP     1 STRESS PERIOD     3
      4 TOTAL ITERATIONS
     1 CALLS TO GCG PACKAGE FOR TRANSPORT TIME STEP  2499 IN FLOW TIME STEP     1 STRESS PERIOD     3
      4 TOTAL ITERATIONS
     1 CALLS TO GCG PACKAGE FOR TRANSPORT TIME STEP  2500 IN FLOW TIME STEP     1 STRESS PERIOD     3
      4 TOTAL ITERATIONS
     1 CALLS TO GCG PACKAGE FOR TRANSPORT TIME STEP  2501 IN FLOW TIME STEP     1 STRESS PERIOD     3
      4 TOTAL ITERATIONS
     1 CALLS TO GCG PACKAGE FOR TRANSPORT TIME STEP  2502 IN FLOW TIME STEP     1 STRESS PERIOD     3
      4 TOTAL ITERATIONS
     1 CALLS TO GCG PACKAGE FOR TRANSPORT TIME STEP  2503 IN FLOW TIME STEP     1 STRESS PERIOD     3
      4 TOTAL ITERATIONS
     1 CALLS TO GCG PACKAGE FOR TRANSPORT TIME STEP  2504 IN FLOW TIME STEP     1 STRESS PERIOD     3
      4 TOTAL ITERATIONS
     1 CALLS TO GCG PACKAGE FOR TRANSPORT TIME STEP  2505 IN FLOW TIME STEP     1 STRESS PERIOD     3
      4 TOTAL ITERATIONS
     1 CALLS TO GCG PACKAGE FOR TRANSPORT TIME STEP  2506 IN FLOW TIME STEP     1 STRESS PERIOD     3
      4 TOTAL ITERATIONS
     1 CALLS TO GCG PACKAGE FOR TRANSPORT TIME STEP  2507 IN FLOW TIME STEP     1 STRESS PERIOD     3
      4 TOTAL ITERATIONS
     1 CALLS TO GCG PACKAGE FOR TRANSPORT TIME STEP  2508 IN FLOW TIME STEP     1 STRESS PERIOD     3
      4 TOTAL ITERATIONS
     1 CALLS TO GCG PACKAGE FOR TRANSPORT TIME STEP  2509 IN FLOW TIME STEP     1 STRESS PERIOD     3
      4 TOTAL ITERATIONS
     1 CALLS TO GCG PACKAGE FOR TRANSPORT TIME STEP  2510 IN FLOW TIME STEP     1 STRESS PERIOD     3
      4 TOTAL ITERATIONS
     1 CALLS TO GCG PACKAGE FOR TRANSPORT TIME STEP  2511 IN FLOW TIME STEP     1 STRESS PERIOD     3
      4 TOTAL ITERATIONS
     1 CALLS TO GCG PACKAGE FOR TRANSPORT TIME STEP  2512 IN FLOW TIME STEP     1 STRESS PERIOD     3
      4 TOTAL ITERATIONS
     1 CALLS TO GCG PACKAGE FOR TRANSPORT TIME STEP  2513 IN FLOW TIME STEP     1 STRESS PERIOD     3
      4 TOTAL ITERATIONS
     1 CALLS TO GCG PACKAGE FOR TRANSPORT TIME STEP  2514 IN FLOW TIME STEP     1 STRESS PERIOD     3
      4 TOTAL ITERATIONS
     1 CALLS TO GCG PACKAGE FOR TRANSPORT TIME STEP  2515 IN FLOW TIME STEP     1 STRESS PERIOD     3
      4 TOTAL ITERATIONS
     1 CALLS TO GCG PACKAGE FOR TRANSPORT TIME STEP  2516 IN FLOW TIME STEP     1 STRESS PERIOD     3
      4 TOTAL ITERATIONS
     1 CALLS TO GCG PACKAGE FOR TRANSPORT TIME STEP  2517 IN FLOW TIME STEP     1 STRESS PERIOD     3
      4 TOTAL ITERATIONS
     1 CALLS TO GCG PACKAGE FOR TRANSPORT TIME STEP  2518 IN FLOW TIME STEP     1 STRESS PERIOD     3
      4 TOTAL ITERATIONS
     1 CALLS TO GCG PACKAGE FOR TRANSPORT TIME STEP  2519 IN FLOW TIME STEP     1 STRESS PERIOD     3
      4 TOTAL ITERATIONS
     1 CALLS TO GCG PACKAGE FOR TRANSPORT TIME STEP  2520 IN FLOW TIME STEP     1 STRESS PERIOD     3
      4 TOTAL ITERATIONS
     1 CALLS TO GCG PACKAGE FOR TRANSPORT TIME STEP  2521 IN FLOW TIME STEP     1 STRESS PERIOD     3
      4 TOTAL ITERATIONS
     1 CALLS TO GCG PACKAGE FOR TRANSPORT TIME STEP  2522 IN FLOW TIME STEP     1 STRESS PERIOD     3
      4 TOTAL ITERATIONS
     1 CALLS TO GCG PACKAGE FOR TRANSPORT TIME STEP  2523 IN FLOW TIME STEP     1 STRESS PERIOD     3
      4 TOTAL ITERATIONS
     1 CALLS TO GCG PACKAGE FOR TRANSPORT TIME STEP  2524 IN FLOW TIME STEP     1 STRESS PERIOD     3
      4 TOTAL ITERATIONS
     1 CALLS TO GCG PACKAGE FOR TRANSPORT TIME STEP  2525 IN FLOW TIME STEP     1 STRESS PERIOD     3
      4 TOTAL ITERATIONS
     1 CALLS TO GCG PACKAGE FOR TRANSPORT TIME STEP  2526 IN FLOW TIME STEP     1 STRESS PERIOD     3
      4 TOTAL ITERATIONS
     1 CALLS TO GCG PACKAGE FOR TRANSPORT TIME STEP  2527 IN FLOW TIME STEP     1 STRESS PERIOD     3
      4 TOTAL ITERATIONS
     1 CALLS TO GCG PACKAGE FOR TRANSPORT TIME STEP  2528 IN FLOW TIME STEP     1 STRESS PERIOD     3
      4 TOTAL ITERATIONS
     1 CALLS TO GCG PACKAGE FOR TRANSPORT TIME STEP  2529 IN FLOW TIME STEP     1 STRESS PERIOD     3
      3 TOTAL ITERATIONS



 >>>>>>>>>>>>>>>>>>>>>>>>>>>>>>>>>>>>>>>>>>>>>>>>>>>>>>>FOR COMPONENT NO. 01<<<<<<<<<<<<<<<<<<<<<<<<<<<<<<<<<<<<<<<<<<<<<<<<<<<<<<<


                                            -------------------------------------------
                                                      TRANSPORT STEP NO. 2529
                                            -------------------------------------------

 TOTAL ELAPSED TIME SINCE BEGINNING OF SIMULATION =   77.08000    D   
 .....................................................................

                     CUMULATIVE MASS BUDGETS AT END OF TRANSPORT STEP 2529, TIME STEP    1, STRESS PERIOD    3
                     -----------------------------------------------------------------------------------------

                                                             IN                           OUT
                                                      ----------------             ----------------
                               CONSTANT CONCENTRATION:    0.000000                    0.000000    
                                        CONSTANT HEAD:    0.000000                  -0.4151450E-01
                                                WELLS:   0.4756887E-01                0.000000    
                               MASS STOR (FLOW MODEL):    0.000000                    0.000000    
                                MASS STORAGE (SOLUTE):   0.2008442E-04              -0.6076189E-02
                            ---------------------------------------------------------------------------
                                              [TOTAL]:   0.4758895E-01 KG           -0.4759069E-01 KG  

                                                          NET (IN - OUT):  -0.1735985E-05
                                                   DISCREPANCY (PERCENT):  -0.3647808E-02
     1 CALLS TO GCG PACKAGE FOR TRANSPORT TIME STEP  2530 IN FLOW TIME STEP     1 STRESS PERIOD     3
      4 TOTAL ITERATIONS
     1 CALLS TO GCG PACKAGE FOR TRANSPORT TIME STEP  2531 IN FLOW TIME STEP     1 STRESS PERIOD     3
      4 TOTAL ITERATIONS
     1 CALLS TO GCG PACKAGE FOR TRANSPORT TIME STEP  2532 IN FLOW TIME STEP     1 STRESS PERIOD     3
      4 TOTAL ITERATIONS
     1 CALLS TO GCG PACKAGE FOR TRANSPORT TIME STEP  2533 IN FLOW TIME STEP     1 STRESS PERIOD     3
      4 TOTAL ITERATIONS
     1 CALLS TO GCG PACKAGE FOR TRANSPORT TIME STEP  2534 IN FLOW TIME STEP     1 STRESS PERIOD     3
      4 TOTAL ITERATIONS
     1 CALLS TO GCG PACKAGE FOR TRANSPORT TIME STEP  2535 IN FLOW TIME STEP     1 STRESS PERIOD     3
      4 TOTAL ITERATIONS
     1 CALLS TO GCG PACKAGE FOR TRANSPORT TIME STEP  2536 IN FLOW TIME STEP     1 STRESS PERIOD     3
      4 TOTAL ITERATIONS
     1 CALLS TO GCG PACKAGE FOR TRANSPORT TIME STEP  2537 IN FLOW TIME STEP     1 STRESS PERIOD     3
      4 TOTAL ITERATIONS
     1 CALLS TO GCG PACKAGE FOR TRANSPORT TIME STEP  2538 IN FLOW TIME STEP     1 STRESS PERIOD     3
      4 TOTAL ITERATIONS
     1 CALLS TO GCG PACKAGE FOR TRANSPORT TIME STEP  2539 IN FLOW TIME STEP     1 STRESS PERIOD     3
      4 TOTAL ITERATIONS
     1 CALLS TO GCG PACKAGE FOR TRANSPORT TIME STEP  2540 IN FLOW TIME STEP     1 STRESS PERIOD     3
      4 TOTAL ITERATIONS
     1 CALLS TO GCG PACKAGE FOR TRANSPORT TIME STEP  2541 IN FLOW TIME STEP     1 STRESS PERIOD     3
      4 TOTAL ITERATIONS
     1 CALLS TO GCG PACKAGE FOR TRANSPORT TIME STEP  2542 IN FLOW TIME STEP     1 STRESS PERIOD     3
      4 TOTAL ITERATIONS
     1 CALLS TO GCG PACKAGE FOR TRANSPORT TIME STEP  2543 IN FLOW TIME STEP     1 STRESS PERIOD     3
      4 TOTAL ITERATIONS
     1 CALLS TO GCG PACKAGE FOR TRANSPORT TIME STEP  2544 IN FLOW TIME STEP     1 STRESS PERIOD     3
      4 TOTAL ITERATIONS
     1 CALLS TO GCG PACKAGE FOR TRANSPORT TIME STEP  2545 IN FLOW TIME STEP     1 STRESS PERIOD     3
      4 TOTAL ITERATIONS
     1 CALLS TO GCG PACKAGE FOR TRANSPORT TIME STEP  2546 IN FLOW TIME STEP     1 STRESS PERIOD     3
      4 TOTAL ITERATIONS
     1 CALLS TO GCG PACKAGE FOR TRANSPORT TIME STEP  2547 IN FLOW TIME STEP     1 STRESS PERIOD     3
      4 TOTAL ITERATIONS
     1 CALLS TO GCG PACKAGE FOR TRANSPORT TIME STEP  2548 IN FLOW TIME STEP     1 STRESS PERIOD     3
      4 TOTAL ITERATIONS
     1 CALLS TO GCG PACKAGE FOR TRANSPORT TIME STEP  2549 IN FLOW TIME STEP     1 STRESS PERIOD     3
      4 TOTAL ITERATIONS
     1 CALLS TO GCG PACKAGE FOR TRANSPORT TIME STEP  2550 IN FLOW TIME STEP     1 STRESS PERIOD     3
      4 TOTAL ITERATIONS
     1 CALLS TO GCG PACKAGE FOR TRANSPORT TIME STEP  2551 IN FLOW TIME STEP     1 STRESS PERIOD     3
      4 TOTAL ITERATIONS
     1 CALLS TO GCG PACKAGE FOR TRANSPORT TIME STEP  2552 IN FLOW TIME STEP     1 STRESS PERIOD     3
      4 TOTAL ITERATIONS
     1 CALLS TO GCG PACKAGE FOR TRANSPORT TIME STEP  2553 IN FLOW TIME STEP     1 STRESS PERIOD     3
      4 TOTAL ITERATIONS
     1 CALLS TO GCG PACKAGE FOR TRANSPORT TIME STEP  2554 IN FLOW TIME STEP     1 STRESS PERIOD     3
      4 TOTAL ITERATIONS
     1 CALLS TO GCG PACKAGE FOR TRANSPORT TIME STEP  2555 IN FLOW TIME STEP     1 STRESS PERIOD     3
      4 TOTAL ITERATIONS
     1 CALLS TO GCG PACKAGE FOR TRANSPORT TIME STEP  2556 IN FLOW TIME STEP     1 STRESS PERIOD     3
      4 TOTAL ITERATIONS
     1 CALLS TO GCG PACKAGE FOR TRANSPORT TIME STEP  2557 IN FLOW TIME STEP     1 STRESS PERIOD     3
      4 TOTAL ITERATIONS
     1 CALLS TO GCG PACKAGE FOR TRANSPORT TIME STEP  2558 IN FLOW TIME STEP     1 STRESS PERIOD     3
      4 TOTAL ITERATIONS
     1 CALLS TO GCG PACKAGE FOR TRANSPORT TIME STEP  2559 IN FLOW TIME STEP     1 STRESS PERIOD     3
      4 TOTAL ITERATIONS
     1 CALLS TO GCG PACKAGE FOR TRANSPORT TIME STEP  2560 IN FLOW TIME STEP     1 STRESS PERIOD     3
      4 TOTAL ITERATIONS
     1 CALLS TO GCG PACKAGE FOR TRANSPORT TIME STEP  2561 IN FLOW TIME STEP     1 STRESS PERIOD     3
      4 TOTAL ITERATIONS
     1 CALLS TO GCG PACKAGE FOR TRANSPORT TIME STEP  2562 IN FLOW TIME STEP     1 STRESS PERIOD     3
      4 TOTAL ITERATIONS
     1 CALLS TO GCG PACKAGE FOR TRANSPORT TIME STEP  2563 IN FLOW TIME STEP     1 STRESS PERIOD     3
      4 TOTAL ITERATIONS
     1 CALLS TO GCG PACKAGE FOR TRANSPORT TIME STEP  2564 IN FLOW TIME STEP     1 STRESS PERIOD     3
      4 TOTAL ITERATIONS
     1 CALLS TO GCG PACKAGE FOR TRANSPORT TIME STEP  2565 IN FLOW TIME STEP     1 STRESS PERIOD     3
      4 TOTAL ITERATIONS
     1 CALLS TO GCG PACKAGE FOR TRANSPORT TIME STEP  2566 IN FLOW TIME STEP     1 STRESS PERIOD     3
      4 TOTAL ITERATIONS
     1 CALLS TO GCG PACKAGE FOR TRANSPORT TIME STEP  2567 IN FLOW TIME STEP     1 STRESS PERIOD     3
      4 TOTAL ITERATIONS
     1 CALLS TO GCG PACKAGE FOR TRANSPORT TIME STEP  2568 IN FLOW TIME STEP     1 STRESS PERIOD     3
      4 TOTAL ITERATIONS
     1 CALLS TO GCG PACKAGE FOR TRANSPORT TIME STEP  2569 IN FLOW TIME STEP     1 STRESS PERIOD     3
      4 TOTAL ITERATIONS
     1 CALLS TO GCG PACKAGE FOR TRANSPORT TIME STEP  2570 IN FLOW TIME STEP     1 STRESS PERIOD     3
      4 TOTAL ITERATIONS
     1 CALLS TO GCG PACKAGE FOR TRANSPORT TIME STEP  2571 IN FLOW TIME STEP     1 STRESS PERIOD     3
      4 TOTAL ITERATIONS
     1 CALLS TO GCG PACKAGE FOR TRANSPORT TIME STEP  2572 IN FLOW TIME STEP     1 STRESS PERIOD     3
      4 TOTAL ITERATIONS
     1 CALLS TO GCG PACKAGE FOR TRANSPORT TIME STEP  2573 IN FLOW TIME STEP     1 STRESS PERIOD     3
      4 TOTAL ITERATIONS
     1 CALLS TO GCG PACKAGE FOR TRANSPORT TIME STEP  2574 IN FLOW TIME STEP     1 STRESS PERIOD     3
      4 TOTAL ITERATIONS
     1 CALLS TO GCG PACKAGE FOR TRANSPORT TIME STEP  2575 IN FLOW TIME STEP     1 STRESS PERIOD     3
      3 TOTAL ITERATIONS



 >>>>>>>>>>>>>>>>>>>>>>>>>>>>>>>>>>>>>>>>>>>>>>>>>>>>>>>FOR COMPONENT NO. 01<<<<<<<<<<<<<<<<<<<<<<<<<<<<<<<<<<<<<<<<<<<<<<<<<<<<<<<


                                            -------------------------------------------
                                                      TRANSPORT STEP NO. 2575
                                            -------------------------------------------

 TOTAL ELAPSED TIME SINCE BEGINNING OF SIMULATION =   77.90000    D   
 .....................................................................

                     CUMULATIVE MASS BUDGETS AT END OF TRANSPORT STEP 2575, TIME STEP    1, STRESS PERIOD    3
                     -----------------------------------------------------------------------------------------

                                                             IN                           OUT
                                                      ----------------             ----------------
                               CONSTANT CONCENTRATION:    0.000000                    0.000000    
                                        CONSTANT HEAD:    0.000000                  -0.4202025E-01
                                                WELLS:   0.4807495E-01                0.000000    
                               MASS STOR (FLOW MODEL):    0.000000                    0.000000    
                                MASS STORAGE (SOLUTE):   0.2011252E-04              -0.6076606E-02
                            ---------------------------------------------------------------------------
                                              [TOTAL]:   0.4809507E-01 KG           -0.4809686E-01 KG  

                                                          NET (IN - OUT):  -0.1791865E-05
                                                   DISCREPANCY (PERCENT):  -0.3725603E-02
     1 CALLS TO GCG PACKAGE FOR TRANSPORT TIME STEP  2576 IN FLOW TIME STEP     1 STRESS PERIOD     3
      4 TOTAL ITERATIONS
     1 CALLS TO GCG PACKAGE FOR TRANSPORT TIME STEP  2577 IN FLOW TIME STEP     1 STRESS PERIOD     3
      4 TOTAL ITERATIONS
     1 CALLS TO GCG PACKAGE FOR TRANSPORT TIME STEP  2578 IN FLOW TIME STEP     1 STRESS PERIOD     3
      4 TOTAL ITERATIONS
     1 CALLS TO GCG PACKAGE FOR TRANSPORT TIME STEP  2579 IN FLOW TIME STEP     1 STRESS PERIOD     3
      4 TOTAL ITERATIONS
     1 CALLS TO GCG PACKAGE FOR TRANSPORT TIME STEP  2580 IN FLOW TIME STEP     1 STRESS PERIOD     3
      4 TOTAL ITERATIONS
     1 CALLS TO GCG PACKAGE FOR TRANSPORT TIME STEP  2581 IN FLOW TIME STEP     1 STRESS PERIOD     3
      4 TOTAL ITERATIONS
     1 CALLS TO GCG PACKAGE FOR TRANSPORT TIME STEP  2582 IN FLOW TIME STEP     1 STRESS PERIOD     3
      4 TOTAL ITERATIONS
     1 CALLS TO GCG PACKAGE FOR TRANSPORT TIME STEP  2583 IN FLOW TIME STEP     1 STRESS PERIOD     3
      4 TOTAL ITERATIONS
     1 CALLS TO GCG PACKAGE FOR TRANSPORT TIME STEP  2584 IN FLOW TIME STEP     1 STRESS PERIOD     3
      4 TOTAL ITERATIONS
     1 CALLS TO GCG PACKAGE FOR TRANSPORT TIME STEP  2585 IN FLOW TIME STEP     1 STRESS PERIOD     3
      4 TOTAL ITERATIONS
     1 CALLS TO GCG PACKAGE FOR TRANSPORT TIME STEP  2586 IN FLOW TIME STEP     1 STRESS PERIOD     3
      4 TOTAL ITERATIONS
     1 CALLS TO GCG PACKAGE FOR TRANSPORT TIME STEP  2587 IN FLOW TIME STEP     1 STRESS PERIOD     3
      4 TOTAL ITERATIONS
     1 CALLS TO GCG PACKAGE FOR TRANSPORT TIME STEP  2588 IN FLOW TIME STEP     1 STRESS PERIOD     3
      4 TOTAL ITERATIONS
     1 CALLS TO GCG PACKAGE FOR TRANSPORT TIME STEP  2589 IN FLOW TIME STEP     1 STRESS PERIOD     3
      4 TOTAL ITERATIONS
     1 CALLS TO GCG PACKAGE FOR TRANSPORT TIME STEP  2590 IN FLOW TIME STEP     1 STRESS PERIOD     3
      4 TOTAL ITERATIONS
     1 CALLS TO GCG PACKAGE FOR TRANSPORT TIME STEP  2591 IN FLOW TIME STEP     1 STRESS PERIOD     3
      4 TOTAL ITERATIONS
     1 CALLS TO GCG PACKAGE FOR TRANSPORT TIME STEP  2592 IN FLOW TIME STEP     1 STRESS PERIOD     3
      4 TOTAL ITERATIONS
     1 CALLS TO GCG PACKAGE FOR TRANSPORT TIME STEP  2593 IN FLOW TIME STEP     1 STRESS PERIOD     3
      4 TOTAL ITERATIONS
     1 CALLS TO GCG PACKAGE FOR TRANSPORT TIME STEP  2594 IN FLOW TIME STEP     1 STRESS PERIOD     3
      4 TOTAL ITERATIONS
     1 CALLS TO GCG PACKAGE FOR TRANSPORT TIME STEP  2595 IN FLOW TIME STEP     1 STRESS PERIOD     3
      4 TOTAL ITERATIONS
     1 CALLS TO GCG PACKAGE FOR TRANSPORT TIME STEP  2596 IN FLOW TIME STEP     1 STRESS PERIOD     3
      4 TOTAL ITERATIONS
     1 CALLS TO GCG PACKAGE FOR TRANSPORT TIME STEP  2597 IN FLOW TIME STEP     1 STRESS PERIOD     3
      4 TOTAL ITERATIONS
     1 CALLS TO GCG PACKAGE FOR TRANSPORT TIME STEP  2598 IN FLOW TIME STEP     1 STRESS PERIOD     3
      4 TOTAL ITERATIONS
     1 CALLS TO GCG PACKAGE FOR TRANSPORT TIME STEP  2599 IN FLOW TIME STEP     1 STRESS PERIOD     3
      4 TOTAL ITERATIONS
     1 CALLS TO GCG PACKAGE FOR TRANSPORT TIME STEP  2600 IN FLOW TIME STEP     1 STRESS PERIOD     3
      4 TOTAL ITERATIONS
     1 CALLS TO GCG PACKAGE FOR TRANSPORT TIME STEP  2601 IN FLOW TIME STEP     1 STRESS PERIOD     3
      4 TOTAL ITERATIONS
     1 CALLS TO GCG PACKAGE FOR TRANSPORT TIME STEP  2602 IN FLOW TIME STEP     1 STRESS PERIOD     3
      4 TOTAL ITERATIONS
     1 CALLS TO GCG PACKAGE FOR TRANSPORT TIME STEP  2603 IN FLOW TIME STEP     1 STRESS PERIOD     3
      4 TOTAL ITERATIONS
     1 CALLS TO GCG PACKAGE FOR TRANSPORT TIME STEP  2604 IN FLOW TIME STEP     1 STRESS PERIOD     3
      4 TOTAL ITERATIONS
     1 CALLS TO GCG PACKAGE FOR TRANSPORT TIME STEP  2605 IN FLOW TIME STEP     1 STRESS PERIOD     3
      4 TOTAL ITERATIONS
     1 CALLS TO GCG PACKAGE FOR TRANSPORT TIME STEP  2606 IN FLOW TIME STEP     1 STRESS PERIOD     3
      4 TOTAL ITERATIONS
     1 CALLS TO GCG PACKAGE FOR TRANSPORT TIME STEP  2607 IN FLOW TIME STEP     1 STRESS PERIOD     3
      4 TOTAL ITERATIONS
     1 CALLS TO GCG PACKAGE FOR TRANSPORT TIME STEP  2608 IN FLOW TIME STEP     1 STRESS PERIOD     3
      4 TOTAL ITERATIONS
     1 CALLS TO GCG PACKAGE FOR TRANSPORT TIME STEP  2609 IN FLOW TIME STEP     1 STRESS PERIOD     3
      4 TOTAL ITERATIONS
     1 CALLS TO GCG PACKAGE FOR TRANSPORT TIME STEP  2610 IN FLOW TIME STEP     1 STRESS PERIOD     3
      4 TOTAL ITERATIONS
     1 CALLS TO GCG PACKAGE FOR TRANSPORT TIME STEP  2611 IN FLOW TIME STEP     1 STRESS PERIOD     3
      4 TOTAL ITERATIONS
     1 CALLS TO GCG PACKAGE FOR TRANSPORT TIME STEP  2612 IN FLOW TIME STEP     1 STRESS PERIOD     3
      4 TOTAL ITERATIONS
     1 CALLS TO GCG PACKAGE FOR TRANSPORT TIME STEP  2613 IN FLOW TIME STEP     1 STRESS PERIOD     3
      4 TOTAL ITERATIONS
     1 CALLS TO GCG PACKAGE FOR TRANSPORT TIME STEP  2614 IN FLOW TIME STEP     1 STRESS PERIOD     3
      4 TOTAL ITERATIONS
     1 CALLS TO GCG PACKAGE FOR TRANSPORT TIME STEP  2615 IN FLOW TIME STEP     1 STRESS PERIOD     3
      4 TOTAL ITERATIONS
     1 CALLS TO GCG PACKAGE FOR TRANSPORT TIME STEP  2616 IN FLOW TIME STEP     1 STRESS PERIOD     3
      4 TOTAL ITERATIONS
     1 CALLS TO GCG PACKAGE FOR TRANSPORT TIME STEP  2617 IN FLOW TIME STEP     1 STRESS PERIOD     3
      4 TOTAL ITERATIONS
     1 CALLS TO GCG PACKAGE FOR TRANSPORT TIME STEP  2618 IN FLOW TIME STEP     1 STRESS PERIOD     3
      4 TOTAL ITERATIONS
     1 CALLS TO GCG PACKAGE FOR TRANSPORT TIME STEP  2619 IN FLOW TIME STEP     1 STRESS PERIOD     3
      4 TOTAL ITERATIONS
     1 CALLS TO GCG PACKAGE FOR TRANSPORT TIME STEP  2620 IN FLOW TIME STEP     1 STRESS PERIOD     3
      4 TOTAL ITERATIONS
     1 CALLS TO GCG PACKAGE FOR TRANSPORT TIME STEP  2621 IN FLOW TIME STEP     1 STRESS PERIOD     3
      3 TOTAL ITERATIONS



 >>>>>>>>>>>>>>>>>>>>>>>>>>>>>>>>>>>>>>>>>>>>>>>>>>>>>>>FOR COMPONENT NO. 01<<<<<<<<<<<<<<<<<<<<<<<<<<<<<<<<<<<<<<<<<<<<<<<<<<<<<<<


                                            -------------------------------------------
                                                      TRANSPORT STEP NO. 2621
                                            -------------------------------------------

 TOTAL ELAPSED TIME SINCE BEGINNING OF SIMULATION =   78.72000    D   
 .....................................................................

                     CUMULATIVE MASS BUDGETS AT END OF TRANSPORT STEP 2621, TIME STEP    1, STRESS PERIOD    3
                     -----------------------------------------------------------------------------------------

                                                             IN                           OUT
                                                      ----------------             ----------------
                               CONSTANT CONCENTRATION:    0.000000                    0.000000    
                                        CONSTANT HEAD:    0.000000                  -0.4252600E-01
                                                WELLS:   0.4858104E-01                0.000000    
                               MASS STOR (FLOW MODEL):    0.000000                    0.000000    
                                MASS STORAGE (SOLUTE):   0.2014062E-04              -0.6076999E-02
                            ---------------------------------------------------------------------------
                                              [TOTAL]:   0.4860118E-01 KG           -0.4860300E-01 KG  

                                                          NET (IN - OUT):  -0.1821667E-05
                                                   DISCREPANCY (PERCENT):  -0.3748125E-02
     1 CALLS TO GCG PACKAGE FOR TRANSPORT TIME STEP  2622 IN FLOW TIME STEP     1 STRESS PERIOD     3
      4 TOTAL ITERATIONS
     1 CALLS TO GCG PACKAGE FOR TRANSPORT TIME STEP  2623 IN FLOW TIME STEP     1 STRESS PERIOD     3
      4 TOTAL ITERATIONS
     1 CALLS TO GCG PACKAGE FOR TRANSPORT TIME STEP  2624 IN FLOW TIME STEP     1 STRESS PERIOD     3
      4 TOTAL ITERATIONS
     1 CALLS TO GCG PACKAGE FOR TRANSPORT TIME STEP  2625 IN FLOW TIME STEP     1 STRESS PERIOD     3
      4 TOTAL ITERATIONS
     1 CALLS TO GCG PACKAGE FOR TRANSPORT TIME STEP  2626 IN FLOW TIME STEP     1 STRESS PERIOD     3
      4 TOTAL ITERATIONS
     1 CALLS TO GCG PACKAGE FOR TRANSPORT TIME STEP  2627 IN FLOW TIME STEP     1 STRESS PERIOD     3
      4 TOTAL ITERATIONS
     1 CALLS TO GCG PACKAGE FOR TRANSPORT TIME STEP  2628 IN FLOW TIME STEP     1 STRESS PERIOD     3
      4 TOTAL ITERATIONS
     1 CALLS TO GCG PACKAGE FOR TRANSPORT TIME STEP  2629 IN FLOW TIME STEP     1 STRESS PERIOD     3
      4 TOTAL ITERATIONS
     1 CALLS TO GCG PACKAGE FOR TRANSPORT TIME STEP  2630 IN FLOW TIME STEP     1 STRESS PERIOD     3
      4 TOTAL ITERATIONS
     1 CALLS TO GCG PACKAGE FOR TRANSPORT TIME STEP  2631 IN FLOW TIME STEP     1 STRESS PERIOD     3
      4 TOTAL ITERATIONS
     1 CALLS TO GCG PACKAGE FOR TRANSPORT TIME STEP  2632 IN FLOW TIME STEP     1 STRESS PERIOD     3
      4 TOTAL ITERATIONS
     1 CALLS TO GCG PACKAGE FOR TRANSPORT TIME STEP  2633 IN FLOW TIME STEP     1 STRESS PERIOD     3
      4 TOTAL ITERATIONS
     1 CALLS TO GCG PACKAGE FOR TRANSPORT TIME STEP  2634 IN FLOW TIME STEP     1 STRESS PERIOD     3
      4 TOTAL ITERATIONS
     1 CALLS TO GCG PACKAGE FOR TRANSPORT TIME STEP  2635 IN FLOW TIME STEP     1 STRESS PERIOD     3
      4 TOTAL ITERATIONS
     1 CALLS TO GCG PACKAGE FOR TRANSPORT TIME STEP  2636 IN FLOW TIME STEP     1 STRESS PERIOD     3
      4 TOTAL ITERATIONS
     1 CALLS TO GCG PACKAGE FOR TRANSPORT TIME STEP  2637 IN FLOW TIME STEP     1 STRESS PERIOD     3
      4 TOTAL ITERATIONS
     1 CALLS TO GCG PACKAGE FOR TRANSPORT TIME STEP  2638 IN FLOW TIME STEP     1 STRESS PERIOD     3
      4 TOTAL ITERATIONS
     1 CALLS TO GCG PACKAGE FOR TRANSPORT TIME STEP  2639 IN FLOW TIME STEP     1 STRESS PERIOD     3
      4 TOTAL ITERATIONS
     1 CALLS TO GCG PACKAGE FOR TRANSPORT TIME STEP  2640 IN FLOW TIME STEP     1 STRESS PERIOD     3
      4 TOTAL ITERATIONS
     1 CALLS TO GCG PACKAGE FOR TRANSPORT TIME STEP  2641 IN FLOW TIME STEP     1 STRESS PERIOD     3
      4 TOTAL ITERATIONS
     1 CALLS TO GCG PACKAGE FOR TRANSPORT TIME STEP  2642 IN FLOW TIME STEP     1 STRESS PERIOD     3
      4 TOTAL ITERATIONS
     1 CALLS TO GCG PACKAGE FOR TRANSPORT TIME STEP  2643 IN FLOW TIME STEP     1 STRESS PERIOD     3
      4 TOTAL ITERATIONS
     1 CALLS TO GCG PACKAGE FOR TRANSPORT TIME STEP  2644 IN FLOW TIME STEP     1 STRESS PERIOD     3
      4 TOTAL ITERATIONS
     1 CALLS TO GCG PACKAGE FOR TRANSPORT TIME STEP  2645 IN FLOW TIME STEP     1 STRESS PERIOD     3
      4 TOTAL ITERATIONS
     1 CALLS TO GCG PACKAGE FOR TRANSPORT TIME STEP  2646 IN FLOW TIME STEP     1 STRESS PERIOD     3
      4 TOTAL ITERATIONS
     1 CALLS TO GCG PACKAGE FOR TRANSPORT TIME STEP  2647 IN FLOW TIME STEP     1 STRESS PERIOD     3
      4 TOTAL ITERATIONS
     1 CALLS TO GCG PACKAGE FOR TRANSPORT TIME STEP  2648 IN FLOW TIME STEP     1 STRESS PERIOD     3
      4 TOTAL ITERATIONS
     1 CALLS TO GCG PACKAGE FOR TRANSPORT TIME STEP  2649 IN FLOW TIME STEP     1 STRESS PERIOD     3
      4 TOTAL ITERATIONS
     1 CALLS TO GCG PACKAGE FOR TRANSPORT TIME STEP  2650 IN FLOW TIME STEP     1 STRESS PERIOD     3
      4 TOTAL ITERATIONS
     1 CALLS TO GCG PACKAGE FOR TRANSPORT TIME STEP  2651 IN FLOW TIME STEP     1 STRESS PERIOD     3
      4 TOTAL ITERATIONS
     1 CALLS TO GCG PACKAGE FOR TRANSPORT TIME STEP  2652 IN FLOW TIME STEP     1 STRESS PERIOD     3
      4 TOTAL ITERATIONS
     1 CALLS TO GCG PACKAGE FOR TRANSPORT TIME STEP  2653 IN FLOW TIME STEP     1 STRESS PERIOD     3
      4 TOTAL ITERATIONS
     1 CALLS TO GCG PACKAGE FOR TRANSPORT TIME STEP  2654 IN FLOW TIME STEP     1 STRESS PERIOD     3
      4 TOTAL ITERATIONS
     1 CALLS TO GCG PACKAGE FOR TRANSPORT TIME STEP  2655 IN FLOW TIME STEP     1 STRESS PERIOD     3
      4 TOTAL ITERATIONS
     1 CALLS TO GCG PACKAGE FOR TRANSPORT TIME STEP  2656 IN FLOW TIME STEP     1 STRESS PERIOD     3
      4 TOTAL ITERATIONS
     1 CALLS TO GCG PACKAGE FOR TRANSPORT TIME STEP  2657 IN FLOW TIME STEP     1 STRESS PERIOD     3
      4 TOTAL ITERATIONS
     1 CALLS TO GCG PACKAGE FOR TRANSPORT TIME STEP  2658 IN FLOW TIME STEP     1 STRESS PERIOD     3
      4 TOTAL ITERATIONS
     1 CALLS TO GCG PACKAGE FOR TRANSPORT TIME STEP  2659 IN FLOW TIME STEP     1 STRESS PERIOD     3
      4 TOTAL ITERATIONS
     1 CALLS TO GCG PACKAGE FOR TRANSPORT TIME STEP  2660 IN FLOW TIME STEP     1 STRESS PERIOD     3
      4 TOTAL ITERATIONS
     1 CALLS TO GCG PACKAGE FOR TRANSPORT TIME STEP  2661 IN FLOW TIME STEP     1 STRESS PERIOD     3
      4 TOTAL ITERATIONS
     1 CALLS TO GCG PACKAGE FOR TRANSPORT TIME STEP  2662 IN FLOW TIME STEP     1 STRESS PERIOD     3
      4 TOTAL ITERATIONS
     1 CALLS TO GCG PACKAGE FOR TRANSPORT TIME STEP  2663 IN FLOW TIME STEP     1 STRESS PERIOD     3
      4 TOTAL ITERATIONS
     1 CALLS TO GCG PACKAGE FOR TRANSPORT TIME STEP  2664 IN FLOW TIME STEP     1 STRESS PERIOD     3
      4 TOTAL ITERATIONS
     1 CALLS TO GCG PACKAGE FOR TRANSPORT TIME STEP  2665 IN FLOW TIME STEP     1 STRESS PERIOD     3
      4 TOTAL ITERATIONS
     1 CALLS TO GCG PACKAGE FOR TRANSPORT TIME STEP  2666 IN FLOW TIME STEP     1 STRESS PERIOD     3
      4 TOTAL ITERATIONS
     1 CALLS TO GCG PACKAGE FOR TRANSPORT TIME STEP  2667 IN FLOW TIME STEP     1 STRESS PERIOD     3
      3 TOTAL ITERATIONS



 >>>>>>>>>>>>>>>>>>>>>>>>>>>>>>>>>>>>>>>>>>>>>>>>>>>>>>>FOR COMPONENT NO. 01<<<<<<<<<<<<<<<<<<<<<<<<<<<<<<<<<<<<<<<<<<<<<<<<<<<<<<<


                                            -------------------------------------------
                                                      TRANSPORT STEP NO. 2667
                                            -------------------------------------------

 TOTAL ELAPSED TIME SINCE BEGINNING OF SIMULATION =   79.54000    D   
 .....................................................................

                     CUMULATIVE MASS BUDGETS AT END OF TRANSPORT STEP 2667, TIME STEP    1, STRESS PERIOD    3
                     -----------------------------------------------------------------------------------------

                                                             IN                           OUT
                                                      ----------------             ----------------
                               CONSTANT CONCENTRATION:    0.000000                    0.000000    
                                        CONSTANT HEAD:    0.000000                  -0.4303175E-01
                                                WELLS:   0.4908712E-01                0.000000    
                               MASS STOR (FLOW MODEL):    0.000000                    0.000000    
                                MASS STORAGE (SOLUTE):   0.2016885E-04              -0.6077369E-02
                            ---------------------------------------------------------------------------
                                              [TOTAL]:   0.4910729E-01 KG           -0.4910912E-01 KG  

                                                          NET (IN - OUT):  -0.1825392E-05
                                                   DISCREPANCY (PERCENT):  -0.3717082E-02
     1 CALLS TO GCG PACKAGE FOR TRANSPORT TIME STEP  2668 IN FLOW TIME STEP     1 STRESS PERIOD     3
      4 TOTAL ITERATIONS
     1 CALLS TO GCG PACKAGE FOR TRANSPORT TIME STEP  2669 IN FLOW TIME STEP     1 STRESS PERIOD     3
      4 TOTAL ITERATIONS
     1 CALLS TO GCG PACKAGE FOR TRANSPORT TIME STEP  2670 IN FLOW TIME STEP     1 STRESS PERIOD     3
      4 TOTAL ITERATIONS
     1 CALLS TO GCG PACKAGE FOR TRANSPORT TIME STEP  2671 IN FLOW TIME STEP     1 STRESS PERIOD     3
      4 TOTAL ITERATIONS
     1 CALLS TO GCG PACKAGE FOR TRANSPORT TIME STEP  2672 IN FLOW TIME STEP     1 STRESS PERIOD     3
      4 TOTAL ITERATIONS
     1 CALLS TO GCG PACKAGE FOR TRANSPORT TIME STEP  2673 IN FLOW TIME STEP     1 STRESS PERIOD     3
      4 TOTAL ITERATIONS
     1 CALLS TO GCG PACKAGE FOR TRANSPORT TIME STEP  2674 IN FLOW TIME STEP     1 STRESS PERIOD     3
      4 TOTAL ITERATIONS
     1 CALLS TO GCG PACKAGE FOR TRANSPORT TIME STEP  2675 IN FLOW TIME STEP     1 STRESS PERIOD     3
      4 TOTAL ITERATIONS
     1 CALLS TO GCG PACKAGE FOR TRANSPORT TIME STEP  2676 IN FLOW TIME STEP     1 STRESS PERIOD     3
      4 TOTAL ITERATIONS
     1 CALLS TO GCG PACKAGE FOR TRANSPORT TIME STEP  2677 IN FLOW TIME STEP     1 STRESS PERIOD     3
      4 TOTAL ITERATIONS
     1 CALLS TO GCG PACKAGE FOR TRANSPORT TIME STEP  2678 IN FLOW TIME STEP     1 STRESS PERIOD     3
      4 TOTAL ITERATIONS
     1 CALLS TO GCG PACKAGE FOR TRANSPORT TIME STEP  2679 IN FLOW TIME STEP     1 STRESS PERIOD     3
      4 TOTAL ITERATIONS
     1 CALLS TO GCG PACKAGE FOR TRANSPORT TIME STEP  2680 IN FLOW TIME STEP     1 STRESS PERIOD     3
      4 TOTAL ITERATIONS
     1 CALLS TO GCG PACKAGE FOR TRANSPORT TIME STEP  2681 IN FLOW TIME STEP     1 STRESS PERIOD     3
      4 TOTAL ITERATIONS
     1 CALLS TO GCG PACKAGE FOR TRANSPORT TIME STEP  2682 IN FLOW TIME STEP     1 STRESS PERIOD     3
      4 TOTAL ITERATIONS
     1 CALLS TO GCG PACKAGE FOR TRANSPORT TIME STEP  2683 IN FLOW TIME STEP     1 STRESS PERIOD     3
      4 TOTAL ITERATIONS
     1 CALLS TO GCG PACKAGE FOR TRANSPORT TIME STEP  2684 IN FLOW TIME STEP     1 STRESS PERIOD     3
      4 TOTAL ITERATIONS
     1 CALLS TO GCG PACKAGE FOR TRANSPORT TIME STEP  2685 IN FLOW TIME STEP     1 STRESS PERIOD     3
      4 TOTAL ITERATIONS
     1 CALLS TO GCG PACKAGE FOR TRANSPORT TIME STEP  2686 IN FLOW TIME STEP     1 STRESS PERIOD     3
      4 TOTAL ITERATIONS
     1 CALLS TO GCG PACKAGE FOR TRANSPORT TIME STEP  2687 IN FLOW TIME STEP     1 STRESS PERIOD     3
      4 TOTAL ITERATIONS
     1 CALLS TO GCG PACKAGE FOR TRANSPORT TIME STEP  2688 IN FLOW TIME STEP     1 STRESS PERIOD     3
      4 TOTAL ITERATIONS
     1 CALLS TO GCG PACKAGE FOR TRANSPORT TIME STEP  2689 IN FLOW TIME STEP     1 STRESS PERIOD     3
      4 TOTAL ITERATIONS
     1 CALLS TO GCG PACKAGE FOR TRANSPORT TIME STEP  2690 IN FLOW TIME STEP     1 STRESS PERIOD     3
      4 TOTAL ITERATIONS
     1 CALLS TO GCG PACKAGE FOR TRANSPORT TIME STEP  2691 IN FLOW TIME STEP     1 STRESS PERIOD     3
      4 TOTAL ITERATIONS
     1 CALLS TO GCG PACKAGE FOR TRANSPORT TIME STEP  2692 IN FLOW TIME STEP     1 STRESS PERIOD     3
      4 TOTAL ITERATIONS
     1 CALLS TO GCG PACKAGE FOR TRANSPORT TIME STEP  2693 IN FLOW TIME STEP     1 STRESS PERIOD     3
      4 TOTAL ITERATIONS
     1 CALLS TO GCG PACKAGE FOR TRANSPORT TIME STEP  2694 IN FLOW TIME STEP     1 STRESS PERIOD     3
      4 TOTAL ITERATIONS
     1 CALLS TO GCG PACKAGE FOR TRANSPORT TIME STEP  2695 IN FLOW TIME STEP     1 STRESS PERIOD     3
      4 TOTAL ITERATIONS
     1 CALLS TO GCG PACKAGE FOR TRANSPORT TIME STEP  2696 IN FLOW TIME STEP     1 STRESS PERIOD     3
      4 TOTAL ITERATIONS
     1 CALLS TO GCG PACKAGE FOR TRANSPORT TIME STEP  2697 IN FLOW TIME STEP     1 STRESS PERIOD     3
      4 TOTAL ITERATIONS
     1 CALLS TO GCG PACKAGE FOR TRANSPORT TIME STEP  2698 IN FLOW TIME STEP     1 STRESS PERIOD     3
      4 TOTAL ITERATIONS
     1 CALLS TO GCG PACKAGE FOR TRANSPORT TIME STEP  2699 IN FLOW TIME STEP     1 STRESS PERIOD     3
      4 TOTAL ITERATIONS
     1 CALLS TO GCG PACKAGE FOR TRANSPORT TIME STEP  2700 IN FLOW TIME STEP     1 STRESS PERIOD     3
      4 TOTAL ITERATIONS
     1 CALLS TO GCG PACKAGE FOR TRANSPORT TIME STEP  2701 IN FLOW TIME STEP     1 STRESS PERIOD     3
      4 TOTAL ITERATIONS
     1 CALLS TO GCG PACKAGE FOR TRANSPORT TIME STEP  2702 IN FLOW TIME STEP     1 STRESS PERIOD     3
      4 TOTAL ITERATIONS
     1 CALLS TO GCG PACKAGE FOR TRANSPORT TIME STEP  2703 IN FLOW TIME STEP     1 STRESS PERIOD     3
      4 TOTAL ITERATIONS
     1 CALLS TO GCG PACKAGE FOR TRANSPORT TIME STEP  2704 IN FLOW TIME STEP     1 STRESS PERIOD     3
      4 TOTAL ITERATIONS
     1 CALLS TO GCG PACKAGE FOR TRANSPORT TIME STEP  2705 IN FLOW TIME STEP     1 STRESS PERIOD     3
      4 TOTAL ITERATIONS
     1 CALLS TO GCG PACKAGE FOR TRANSPORT TIME STEP  2706 IN FLOW TIME STEP     1 STRESS PERIOD     3
      4 TOTAL ITERATIONS
     1 CALLS TO GCG PACKAGE FOR TRANSPORT TIME STEP  2707 IN FLOW TIME STEP     1 STRESS PERIOD     3
      4 TOTAL ITERATIONS
     1 CALLS TO GCG PACKAGE FOR TRANSPORT TIME STEP  2708 IN FLOW TIME STEP     1 STRESS PERIOD     3
      4 TOTAL ITERATIONS
     1 CALLS TO GCG PACKAGE FOR TRANSPORT TIME STEP  2709 IN FLOW TIME STEP     1 STRESS PERIOD     3
      4 TOTAL ITERATIONS
     1 CALLS TO GCG PACKAGE FOR TRANSPORT TIME STEP  2710 IN FLOW TIME STEP     1 STRESS PERIOD     3
      4 TOTAL ITERATIONS
     1 CALLS TO GCG PACKAGE FOR TRANSPORT TIME STEP  2711 IN FLOW TIME STEP     1 STRESS PERIOD     3
      4 TOTAL ITERATIONS
     1 CALLS TO GCG PACKAGE FOR TRANSPORT TIME STEP  2712 IN FLOW TIME STEP     1 STRESS PERIOD     3
      4 TOTAL ITERATIONS
     1 CALLS TO GCG PACKAGE FOR TRANSPORT TIME STEP  2713 IN FLOW TIME STEP     1 STRESS PERIOD     3
      3 TOTAL ITERATIONS



 >>>>>>>>>>>>>>>>>>>>>>>>>>>>>>>>>>>>>>>>>>>>>>>>>>>>>>>FOR COMPONENT NO. 01<<<<<<<<<<<<<<<<<<<<<<<<<<<<<<<<<<<<<<<<<<<<<<<<<<<<<<<


                                            -------------------------------------------
                                                      TRANSPORT STEP NO. 2713
                                            -------------------------------------------

 TOTAL ELAPSED TIME SINCE BEGINNING OF SIMULATION =   80.36000    D   
 .....................................................................

                     CUMULATIVE MASS BUDGETS AT END OF TRANSPORT STEP 2713, TIME STEP    1, STRESS PERIOD    3
                     -----------------------------------------------------------------------------------------

                                                             IN                           OUT
                                                      ----------------             ----------------
                               CONSTANT CONCENTRATION:    0.000000                    0.000000    
                                        CONSTANT HEAD:    0.000000                  -0.4353750E-01
                                                WELLS:   0.4959321E-01                0.000000    
                               MASS STOR (FLOW MODEL):    0.000000                    0.000000    
                                MASS STORAGE (SOLUTE):   0.2019713E-04              -0.6077716E-02
                            ---------------------------------------------------------------------------
                                              [TOTAL]:   0.4961341E-01 KG           -0.4961521E-01 KG  

                                                          NET (IN - OUT):  -0.1806766E-05
                                                   DISCREPANCY (PERCENT):  -0.3641622E-02
     1 CALLS TO GCG PACKAGE FOR TRANSPORT TIME STEP  2714 IN FLOW TIME STEP     1 STRESS PERIOD     3
      4 TOTAL ITERATIONS
     1 CALLS TO GCG PACKAGE FOR TRANSPORT TIME STEP  2715 IN FLOW TIME STEP     1 STRESS PERIOD     3
      4 TOTAL ITERATIONS
     1 CALLS TO GCG PACKAGE FOR TRANSPORT TIME STEP  2716 IN FLOW TIME STEP     1 STRESS PERIOD     3
      4 TOTAL ITERATIONS
     1 CALLS TO GCG PACKAGE FOR TRANSPORT TIME STEP  2717 IN FLOW TIME STEP     1 STRESS PERIOD     3
      4 TOTAL ITERATIONS
     1 CALLS TO GCG PACKAGE FOR TRANSPORT TIME STEP  2718 IN FLOW TIME STEP     1 STRESS PERIOD     3
      4 TOTAL ITERATIONS
     1 CALLS TO GCG PACKAGE FOR TRANSPORT TIME STEP  2719 IN FLOW TIME STEP     1 STRESS PERIOD     3
      4 TOTAL ITERATIONS
     1 CALLS TO GCG PACKAGE FOR TRANSPORT TIME STEP  2720 IN FLOW TIME STEP     1 STRESS PERIOD     3
      4 TOTAL ITERATIONS
     1 CALLS TO GCG PACKAGE FOR TRANSPORT TIME STEP  2721 IN FLOW TIME STEP     1 STRESS PERIOD     3
      4 TOTAL ITERATIONS
     1 CALLS TO GCG PACKAGE FOR TRANSPORT TIME STEP  2722 IN FLOW TIME STEP     1 STRESS PERIOD     3
      4 TOTAL ITERATIONS
     1 CALLS TO GCG PACKAGE FOR TRANSPORT TIME STEP  2723 IN FLOW TIME STEP     1 STRESS PERIOD     3
      4 TOTAL ITERATIONS
     1 CALLS TO GCG PACKAGE FOR TRANSPORT TIME STEP  2724 IN FLOW TIME STEP     1 STRESS PERIOD     3
      4 TOTAL ITERATIONS
     1 CALLS TO GCG PACKAGE FOR TRANSPORT TIME STEP  2725 IN FLOW TIME STEP     1 STRESS PERIOD     3
      4 TOTAL ITERATIONS
     1 CALLS TO GCG PACKAGE FOR TRANSPORT TIME STEP  2726 IN FLOW TIME STEP     1 STRESS PERIOD     3
      4 TOTAL ITERATIONS
     1 CALLS TO GCG PACKAGE FOR TRANSPORT TIME STEP  2727 IN FLOW TIME STEP     1 STRESS PERIOD     3
      4 TOTAL ITERATIONS
     1 CALLS TO GCG PACKAGE FOR TRANSPORT TIME STEP  2728 IN FLOW TIME STEP     1 STRESS PERIOD     3
      4 TOTAL ITERATIONS
     1 CALLS TO GCG PACKAGE FOR TRANSPORT TIME STEP  2729 IN FLOW TIME STEP     1 STRESS PERIOD     3
      4 TOTAL ITERATIONS
     1 CALLS TO GCG PACKAGE FOR TRANSPORT TIME STEP  2730 IN FLOW TIME STEP     1 STRESS PERIOD     3
      4 TOTAL ITERATIONS
     1 CALLS TO GCG PACKAGE FOR TRANSPORT TIME STEP  2731 IN FLOW TIME STEP     1 STRESS PERIOD     3
      4 TOTAL ITERATIONS
     1 CALLS TO GCG PACKAGE FOR TRANSPORT TIME STEP  2732 IN FLOW TIME STEP     1 STRESS PERIOD     3
      4 TOTAL ITERATIONS
     1 CALLS TO GCG PACKAGE FOR TRANSPORT TIME STEP  2733 IN FLOW TIME STEP     1 STRESS PERIOD     3
      4 TOTAL ITERATIONS
     1 CALLS TO GCG PACKAGE FOR TRANSPORT TIME STEP  2734 IN FLOW TIME STEP     1 STRESS PERIOD     3
      4 TOTAL ITERATIONS
     1 CALLS TO GCG PACKAGE FOR TRANSPORT TIME STEP  2735 IN FLOW TIME STEP     1 STRESS PERIOD     3
      4 TOTAL ITERATIONS
     1 CALLS TO GCG PACKAGE FOR TRANSPORT TIME STEP  2736 IN FLOW TIME STEP     1 STRESS PERIOD     3
      4 TOTAL ITERATIONS
     1 CALLS TO GCG PACKAGE FOR TRANSPORT TIME STEP  2737 IN FLOW TIME STEP     1 STRESS PERIOD     3
      4 TOTAL ITERATIONS
     1 CALLS TO GCG PACKAGE FOR TRANSPORT TIME STEP  2738 IN FLOW TIME STEP     1 STRESS PERIOD     3
      4 TOTAL ITERATIONS
     1 CALLS TO GCG PACKAGE FOR TRANSPORT TIME STEP  2739 IN FLOW TIME STEP     1 STRESS PERIOD     3
      4 TOTAL ITERATIONS
     1 CALLS TO GCG PACKAGE FOR TRANSPORT TIME STEP  2740 IN FLOW TIME STEP     1 STRESS PERIOD     3
      4 TOTAL ITERATIONS
     1 CALLS TO GCG PACKAGE FOR TRANSPORT TIME STEP  2741 IN FLOW TIME STEP     1 STRESS PERIOD     3
      4 TOTAL ITERATIONS
     1 CALLS TO GCG PACKAGE FOR TRANSPORT TIME STEP  2742 IN FLOW TIME STEP     1 STRESS PERIOD     3
      4 TOTAL ITERATIONS
     1 CALLS TO GCG PACKAGE FOR TRANSPORT TIME STEP  2743 IN FLOW TIME STEP     1 STRESS PERIOD     3
      4 TOTAL ITERATIONS
     1 CALLS TO GCG PACKAGE FOR TRANSPORT TIME STEP  2744 IN FLOW TIME STEP     1 STRESS PERIOD     3
      4 TOTAL ITERATIONS
     1 CALLS TO GCG PACKAGE FOR TRANSPORT TIME STEP  2745 IN FLOW TIME STEP     1 STRESS PERIOD     3
      4 TOTAL ITERATIONS
     1 CALLS TO GCG PACKAGE FOR TRANSPORT TIME STEP  2746 IN FLOW TIME STEP     1 STRESS PERIOD     3
      4 TOTAL ITERATIONS
     1 CALLS TO GCG PACKAGE FOR TRANSPORT TIME STEP  2747 IN FLOW TIME STEP     1 STRESS PERIOD     3
      4 TOTAL ITERATIONS
     1 CALLS TO GCG PACKAGE FOR TRANSPORT TIME STEP  2748 IN FLOW TIME STEP     1 STRESS PERIOD     3
      4 TOTAL ITERATIONS
     1 CALLS TO GCG PACKAGE FOR TRANSPORT TIME STEP  2749 IN FLOW TIME STEP     1 STRESS PERIOD     3
      4 TOTAL ITERATIONS
     1 CALLS TO GCG PACKAGE FOR TRANSPORT TIME STEP  2750 IN FLOW TIME STEP     1 STRESS PERIOD     3
      4 TOTAL ITERATIONS
     1 CALLS TO GCG PACKAGE FOR TRANSPORT TIME STEP  2751 IN FLOW TIME STEP     1 STRESS PERIOD     3
      4 TOTAL ITERATIONS
     1 CALLS TO GCG PACKAGE FOR TRANSPORT TIME STEP  2752 IN FLOW TIME STEP     1 STRESS PERIOD     3
      4 TOTAL ITERATIONS
     1 CALLS TO GCG PACKAGE FOR TRANSPORT TIME STEP  2753 IN FLOW TIME STEP     1 STRESS PERIOD     3
      4 TOTAL ITERATIONS
     1 CALLS TO GCG PACKAGE FOR TRANSPORT TIME STEP  2754 IN FLOW TIME STEP     1 STRESS PERIOD     3
      4 TOTAL ITERATIONS
     1 CALLS TO GCG PACKAGE FOR TRANSPORT TIME STEP  2755 IN FLOW TIME STEP     1 STRESS PERIOD     3
      4 TOTAL ITERATIONS
     1 CALLS TO GCG PACKAGE FOR TRANSPORT TIME STEP  2756 IN FLOW TIME STEP     1 STRESS PERIOD     3
      4 TOTAL ITERATIONS
     1 CALLS TO GCG PACKAGE FOR TRANSPORT TIME STEP  2757 IN FLOW TIME STEP     1 STRESS PERIOD     3
      4 TOTAL ITERATIONS
     1 CALLS TO GCG PACKAGE FOR TRANSPORT TIME STEP  2758 IN FLOW TIME STEP     1 STRESS PERIOD     3
      4 TOTAL ITERATIONS
     1 CALLS TO GCG PACKAGE FOR TRANSPORT TIME STEP  2759 IN FLOW TIME STEP     1 STRESS PERIOD     3
      3 TOTAL ITERATIONS



 >>>>>>>>>>>>>>>>>>>>>>>>>>>>>>>>>>>>>>>>>>>>>>>>>>>>>>>FOR COMPONENT NO. 01<<<<<<<<<<<<<<<<<<<<<<<<<<<<<<<<<<<<<<<<<<<<<<<<<<<<<<<


                                            -------------------------------------------
                                                      TRANSPORT STEP NO. 2759
                                            -------------------------------------------

 TOTAL ELAPSED TIME SINCE BEGINNING OF SIMULATION =   81.18000    D   
 .....................................................................

                     CUMULATIVE MASS BUDGETS AT END OF TRANSPORT STEP 2759, TIME STEP    1, STRESS PERIOD    3
                     -----------------------------------------------------------------------------------------

                                                             IN                           OUT
                                                      ----------------             ----------------
                               CONSTANT CONCENTRATION:    0.000000                    0.000000    
                                        CONSTANT HEAD:    0.000000                  -0.4404338E-01
                                                WELLS:   0.5009929E-01                0.000000    
                               MASS STOR (FLOW MODEL):    0.000000                    0.000000    
                                MASS STORAGE (SOLUTE):   0.2022530E-04              -0.6078044E-02
                            ---------------------------------------------------------------------------
                                              [TOTAL]:   0.5011952E-01 KG           -0.5012142E-01 KG  

                                                          NET (IN - OUT):  -0.1903623E-05
                                                   DISCREPANCY (PERCENT):  -0.3798096E-02
     1 CALLS TO GCG PACKAGE FOR TRANSPORT TIME STEP  2760 IN FLOW TIME STEP     1 STRESS PERIOD     3
      4 TOTAL ITERATIONS
     1 CALLS TO GCG PACKAGE FOR TRANSPORT TIME STEP  2761 IN FLOW TIME STEP     1 STRESS PERIOD     3
      4 TOTAL ITERATIONS
     1 CALLS TO GCG PACKAGE FOR TRANSPORT TIME STEP  2762 IN FLOW TIME STEP     1 STRESS PERIOD     3
      4 TOTAL ITERATIONS
     1 CALLS TO GCG PACKAGE FOR TRANSPORT TIME STEP  2763 IN FLOW TIME STEP     1 STRESS PERIOD     3
      4 TOTAL ITERATIONS
     1 CALLS TO GCG PACKAGE FOR TRANSPORT TIME STEP  2764 IN FLOW TIME STEP     1 STRESS PERIOD     3
      4 TOTAL ITERATIONS
     1 CALLS TO GCG PACKAGE FOR TRANSPORT TIME STEP  2765 IN FLOW TIME STEP     1 STRESS PERIOD     3
      4 TOTAL ITERATIONS
     1 CALLS TO GCG PACKAGE FOR TRANSPORT TIME STEP  2766 IN FLOW TIME STEP     1 STRESS PERIOD     3
      4 TOTAL ITERATIONS
     1 CALLS TO GCG PACKAGE FOR TRANSPORT TIME STEP  2767 IN FLOW TIME STEP     1 STRESS PERIOD     3
      4 TOTAL ITERATIONS
     1 CALLS TO GCG PACKAGE FOR TRANSPORT TIME STEP  2768 IN FLOW TIME STEP     1 STRESS PERIOD     3
      4 TOTAL ITERATIONS
     1 CALLS TO GCG PACKAGE FOR TRANSPORT TIME STEP  2769 IN FLOW TIME STEP     1 STRESS PERIOD     3
      4 TOTAL ITERATIONS
     1 CALLS TO GCG PACKAGE FOR TRANSPORT TIME STEP  2770 IN FLOW TIME STEP     1 STRESS PERIOD     3
      4 TOTAL ITERATIONS
     1 CALLS TO GCG PACKAGE FOR TRANSPORT TIME STEP  2771 IN FLOW TIME STEP     1 STRESS PERIOD     3
      4 TOTAL ITERATIONS
     1 CALLS TO GCG PACKAGE FOR TRANSPORT TIME STEP  2772 IN FLOW TIME STEP     1 STRESS PERIOD     3
      4 TOTAL ITERATIONS
     1 CALLS TO GCG PACKAGE FOR TRANSPORT TIME STEP  2773 IN FLOW TIME STEP     1 STRESS PERIOD     3
      4 TOTAL ITERATIONS
     1 CALLS TO GCG PACKAGE FOR TRANSPORT TIME STEP  2774 IN FLOW TIME STEP     1 STRESS PERIOD     3
      4 TOTAL ITERATIONS
     1 CALLS TO GCG PACKAGE FOR TRANSPORT TIME STEP  2775 IN FLOW TIME STEP     1 STRESS PERIOD     3
      4 TOTAL ITERATIONS
     1 CALLS TO GCG PACKAGE FOR TRANSPORT TIME STEP  2776 IN FLOW TIME STEP     1 STRESS PERIOD     3
      4 TOTAL ITERATIONS
     1 CALLS TO GCG PACKAGE FOR TRANSPORT TIME STEP  2777 IN FLOW TIME STEP     1 STRESS PERIOD     3
      4 TOTAL ITERATIONS
     1 CALLS TO GCG PACKAGE FOR TRANSPORT TIME STEP  2778 IN FLOW TIME STEP     1 STRESS PERIOD     3
      4 TOTAL ITERATIONS
     1 CALLS TO GCG PACKAGE FOR TRANSPORT TIME STEP  2779 IN FLOW TIME STEP     1 STRESS PERIOD     3
      4 TOTAL ITERATIONS
     1 CALLS TO GCG PACKAGE FOR TRANSPORT TIME STEP  2780 IN FLOW TIME STEP     1 STRESS PERIOD     3
      4 TOTAL ITERATIONS
     1 CALLS TO GCG PACKAGE FOR TRANSPORT TIME STEP  2781 IN FLOW TIME STEP     1 STRESS PERIOD     3
      4 TOTAL ITERATIONS
     1 CALLS TO GCG PACKAGE FOR TRANSPORT TIME STEP  2782 IN FLOW TIME STEP     1 STRESS PERIOD     3
      4 TOTAL ITERATIONS
     1 CALLS TO GCG PACKAGE FOR TRANSPORT TIME STEP  2783 IN FLOW TIME STEP     1 STRESS PERIOD     3
      4 TOTAL ITERATIONS
     1 CALLS TO GCG PACKAGE FOR TRANSPORT TIME STEP  2784 IN FLOW TIME STEP     1 STRESS PERIOD     3
      4 TOTAL ITERATIONS
     1 CALLS TO GCG PACKAGE FOR TRANSPORT TIME STEP  2785 IN FLOW TIME STEP     1 STRESS PERIOD     3
      4 TOTAL ITERATIONS
     1 CALLS TO GCG PACKAGE FOR TRANSPORT TIME STEP  2786 IN FLOW TIME STEP     1 STRESS PERIOD     3
      4 TOTAL ITERATIONS
     1 CALLS TO GCG PACKAGE FOR TRANSPORT TIME STEP  2787 IN FLOW TIME STEP     1 STRESS PERIOD     3
      4 TOTAL ITERATIONS
     1 CALLS TO GCG PACKAGE FOR TRANSPORT TIME STEP  2788 IN FLOW TIME STEP     1 STRESS PERIOD     3
      4 TOTAL ITERATIONS
     1 CALLS TO GCG PACKAGE FOR TRANSPORT TIME STEP  2789 IN FLOW TIME STEP     1 STRESS PERIOD     3
      4 TOTAL ITERATIONS
     1 CALLS TO GCG PACKAGE FOR TRANSPORT TIME STEP  2790 IN FLOW TIME STEP     1 STRESS PERIOD     3
      4 TOTAL ITERATIONS
     1 CALLS TO GCG PACKAGE FOR TRANSPORT TIME STEP  2791 IN FLOW TIME STEP     1 STRESS PERIOD     3
      4 TOTAL ITERATIONS
     1 CALLS TO GCG PACKAGE FOR TRANSPORT TIME STEP  2792 IN FLOW TIME STEP     1 STRESS PERIOD     3
      4 TOTAL ITERATIONS
     1 CALLS TO GCG PACKAGE FOR TRANSPORT TIME STEP  2793 IN FLOW TIME STEP     1 STRESS PERIOD     3
      4 TOTAL ITERATIONS
     1 CALLS TO GCG PACKAGE FOR TRANSPORT TIME STEP  2794 IN FLOW TIME STEP     1 STRESS PERIOD     3
      4 TOTAL ITERATIONS
     1 CALLS TO GCG PACKAGE FOR TRANSPORT TIME STEP  2795 IN FLOW TIME STEP     1 STRESS PERIOD     3
      4 TOTAL ITERATIONS
     1 CALLS TO GCG PACKAGE FOR TRANSPORT TIME STEP  2796 IN FLOW TIME STEP     1 STRESS PERIOD     3
      4 TOTAL ITERATIONS
     1 CALLS TO GCG PACKAGE FOR TRANSPORT TIME STEP  2797 IN FLOW TIME STEP     1 STRESS PERIOD     3
      4 TOTAL ITERATIONS
     1 CALLS TO GCG PACKAGE FOR TRANSPORT TIME STEP  2798 IN FLOW TIME STEP     1 STRESS PERIOD     3
      4 TOTAL ITERATIONS
     1 CALLS TO GCG PACKAGE FOR TRANSPORT TIME STEP  2799 IN FLOW TIME STEP     1 STRESS PERIOD     3
      4 TOTAL ITERATIONS
     1 CALLS TO GCG PACKAGE FOR TRANSPORT TIME STEP  2800 IN FLOW TIME STEP     1 STRESS PERIOD     3
      4 TOTAL ITERATIONS
     1 CALLS TO GCG PACKAGE FOR TRANSPORT TIME STEP  2801 IN FLOW TIME STEP     1 STRESS PERIOD     3
      4 TOTAL ITERATIONS
     1 CALLS TO GCG PACKAGE FOR TRANSPORT TIME STEP  2802 IN FLOW TIME STEP     1 STRESS PERIOD     3
      4 TOTAL ITERATIONS
     1 CALLS TO GCG PACKAGE FOR TRANSPORT TIME STEP  2803 IN FLOW TIME STEP     1 STRESS PERIOD     3
      4 TOTAL ITERATIONS
     1 CALLS TO GCG PACKAGE FOR TRANSPORT TIME STEP  2804 IN FLOW TIME STEP     1 STRESS PERIOD     3
      4 TOTAL ITERATIONS
     1 CALLS TO GCG PACKAGE FOR TRANSPORT TIME STEP  2805 IN FLOW TIME STEP     1 STRESS PERIOD     3
      3 TOTAL ITERATIONS
  MAXIMUM CONCENTRATION CHANGES FOR EACH ITERATION:
  MAX. CHANGE LAYER,ROW,COL MAX. CHANGE LAYER,ROW,COL MAX. CHANGE LAYER,ROW,COL MAX. CHANGE LAYER,ROW,COL MAX. CHANGE LAYER,ROW,COL
 ------------------------------------------------------------------------------------------------------------------------------------
   0.4449E-01 (  2,  1,120)  0.2176E-04 ( 40,  1,120)   0.000     (  1,  1,  1)



 >>>>>>>>>>>>>>>>>>>>>>>>>>>>>>>>>>>>>>>>>>>>>>>>>>>>>>>FOR COMPONENT NO. 01<<<<<<<<<<<<<<<<<<<<<<<<<<<<<<<<<<<<<<<<<<<<<<<<<<<<<<<


                                            -------------------------------------------
                                                      TRANSPORT STEP NO. 2805
                                            -------------------------------------------

 TOTAL ELAPSED TIME SINCE BEGINNING OF SIMULATION =   82.00000    D   
 .....................................................................

                     CUMULATIVE MASS BUDGETS AT END OF TRANSPORT STEP 2805, TIME STEP    1, STRESS PERIOD    3
                     -----------------------------------------------------------------------------------------

                                                             IN                           OUT
                                                      ----------------             ----------------
                               CONSTANT CONCENTRATION:    0.000000                    0.000000    
                                        CONSTANT HEAD:    0.000000                  -0.4454929E-01
                                                WELLS:   0.5060538E-01                0.000000    
                               MASS STOR (FLOW MODEL):    0.000000                    0.000000    
                                MASS STORAGE (SOLUTE):   0.2025341E-04              -0.6078353E-02
                            ---------------------------------------------------------------------------
                                              [TOTAL]:   0.5062563E-01 KG           -0.5062765E-01 KG  

                                                          NET (IN - OUT):  -0.2019107E-05
                                                   DISCREPANCY (PERCENT):  -0.3988231E-02
  ----- 
 | M T |
 | 3 D | END OF MODEL OUTPUT
  ----- 
