                                  MODFLOW-2005     
      U.S. GEOLOGICAL SURVEY MODULAR FINITE-DIFFERENCE GROUND-WATER FLOW MODEL
                            VERSION 1.12.00 2/3/2017

 LIST FILE: Example_mnw.list
                         UNIT    2

 OPENING Example_mnw.dis
 FILE TYPE:DIS   UNIT    3   STATUS:OLD    
 FORMAT:FORMATTED              ACCESS:SEQUENTIAL          

 OPENING Example_mnw.bas
 FILE TYPE:BAS6   UNIT    4   STATUS:OLD    
 FORMAT:FORMATTED              ACCESS:SEQUENTIAL          

 OPENING Example_mnw.riv
 FILE TYPE:RIV   UNIT   14   STATUS:OLD    
 FORMAT:FORMATTED              ACCESS:SEQUENTIAL          

 OPENING Example_mnw.rch
 FILE TYPE:RCH   UNIT   18   STATUS:OLD    
 FORMAT:FORMATTED              ACCESS:SEQUENTIAL          

 OPENING Example_mnw.oc
 FILE TYPE:OC   UNIT   22   STATUS:OLD    
 FORMAT:FORMATTED              ACCESS:SEQUENTIAL          

 OPENING Example_mnw.pcg
 FILE TYPE:PCG   UNIT   23   STATUS:OLD    
 FORMAT:FORMATTED              ACCESS:SEQUENTIAL          

 OPENING Example_mnw.lpf
 FILE TYPE:LPF   UNIT   33   STATUS:OLD    
 FORMAT:FORMATTED              ACCESS:SEQUENTIAL          

 OPENING Example_mnw.mnw2
 FILE TYPE:MNW2   UNIT   34   STATUS:OLD    
 FORMAT:FORMATTED              ACCESS:SEQUENTIAL          

 OPENING EXAMPLE.BUD
 FILE TYPE:DATA(BINARY)   UNIT   53   STATUS:REPLACE
 FORMAT:UNFORMATTED            ACCESS:STREAM              

 OPENING EXAMPLE.HED
 FILE TYPE:DATA(BINARY)   UNIT   50   STATUS:REPLACE
 FORMAT:UNFORMATTED            ACCESS:STREAM              

 BAS -- BASIC PACKAGE, VERSION 7, 5/2/2005 INPUT READ FROM UNIT    4
 
 MODFLOW was compiled using mixed precision
 Precision of REAL variables:           6
 Precision of DOUBLE PRECISION variables:          15

 DISCRETIZATION INPUT DATA READ FROM UNIT    3
 # DIS package for MODFLOW-2005 generated by Flopy 3.9.1
    5 LAYERS        25 ROWS        25 COLUMNS
    3 STRESS PERIOD(S) IN SIMULATION
 MODEL TIME UNIT IS DAYS
 MODEL LENGTH UNIT IS FEET
  Confining bed flag for each layer:
   0   0   0   0   0

                     DELR =   400.000    

                     DELC =   400.000    

 TOP ELEVATION OF LAYER 1 =   400.000    



             MODEL LAYER BOTTOM EL. FOR LAYER   1
 READING ON UNIT    3 WITH FORMAT: (FREE)              



             MODEL LAYER BOTTOM EL. FOR LAYER   2
 READING ON UNIT    3 WITH FORMAT: (FREE)              



             MODEL LAYER BOTTOM EL. FOR LAYER   3
 READING ON UNIT    3 WITH FORMAT: (FREE)              



             MODEL LAYER BOTTOM EL. FOR LAYER   4
 READING ON UNIT    3 WITH FORMAT: (FREE)              



             MODEL LAYER BOTTOM EL. FOR LAYER   5
 READING ON UNIT    3 WITH FORMAT: (FREE)              


 STRESS PERIOD     LENGTH       TIME STEPS     MULTIPLIER FOR DELT    SS FLAG
 ----------------------------------------------------------------------------
        1         200000.0          1                    1.000         SS
        2         10000.00         10                    1.500         TR
        3         200000.0          1                    1.000         SS

 COMBINED STEADY-STATE AND TRANSIENT SIMULATION



 
 # BAS6 package for MODFLOW-2005 generated by Flopy 3.9.1                        
 THE FREE FORMAT OPTION HAS BEEN SELECTED



                     BOUNDARY ARRAY FOR LAYER   1
 READING ON UNIT    4 WITH FORMAT: (FREE)              



                     BOUNDARY ARRAY FOR LAYER   2
 READING ON UNIT    4 WITH FORMAT: (FREE)              



                     BOUNDARY ARRAY FOR LAYER   3
 READING ON UNIT    4 WITH FORMAT: (FREE)              



                     BOUNDARY ARRAY FOR LAYER   4
 READING ON UNIT    4 WITH FORMAT: (FREE)              



                     BOUNDARY ARRAY FOR LAYER   5
 READING ON UNIT    4 WITH FORMAT: (FREE)              

 AQUIFER HEAD WILL BE SET TO  1.00000E+30 AT ALL NO-FLOW NODES (IBOUND=0).



                       INITIAL HEAD FOR LAYER   1
 READING ON UNIT    4 WITH FORMAT: (FREE)              



                       INITIAL HEAD FOR LAYER   2
 READING ON UNIT    4 WITH FORMAT: (FREE)              



                       INITIAL HEAD FOR LAYER   3
 READING ON UNIT    4 WITH FORMAT: (FREE)              



                       INITIAL HEAD FOR LAYER   4
 READING ON UNIT    4 WITH FORMAT: (FREE)              



                       INITIAL HEAD FOR LAYER   5
 READING ON UNIT    4 WITH FORMAT: (FREE)              
 # OC package for MODFLOW-2005 generated by Flopy 3.9.1

 OUTPUT CONTROL IS SPECIFIED ONLY AT TIME STEPS FOR WHICH OUTPUT IS DESIRED
 COMPACT CELL-BY-CELL BUDGET FILES WILL BE WRITTEN
 AUXILIARY DATA WILL BE SAVED IN CELL-BY-CELL BUDGET FILES
 HEAD PRINT FORMAT CODE IS   0    DRAWDOWN PRINT FORMAT CODE IS   0
 HEADS WILL BE SAVED ON UNIT   50    DRAWDOWNS WILL BE SAVED ON UNIT    0

 LPF -- LAYER-PROPERTY FLOW PACKAGE, VERSION 7, 5/2/2005
         INPUT READ FROM UNIT   33
 # LPF package for MODFLOW-2005 generated by Flopy 3.9.1
 CELL-BY-CELL FLOWS WILL BE SAVED ON UNIT   53
 HEAD AT CELLS THAT CONVERT TO DRY=  1.00000E+20
 No named parameters

   LAYER FLAGS:
 LAYER       LAYTYP        LAYAVG         CHANI        LAYVKA        LAYWET
 ---------------------------------------------------------------------------
    1             1             0     1.000E+00             0             0
    2             0             0     1.000E+00             0             0
    3             0             0     1.000E+00             0             0
    4             0             0     1.000E+00             0             0
    5             0             0     1.000E+00             0             0

   INTERPRETATION OF LAYER FLAGS:
                        INTERBLOCK     HORIZONTAL    DATA IN
         LAYER TYPE   TRANSMISSIVITY   ANISOTROPY   ARRAY VKA   WETTABILITY
 LAYER      (LAYTYP)      (LAYAVG)       (CHANI)      (LAYVKA)      (LAYWET)
 ---------------------------------------------------------------------------
    1   CONVERTIBLE      HARMONIC     1.000E+00    VERTICAL K  NON-WETTABLE
    2      CONFINED      HARMONIC     1.000E+00    VERTICAL K  NON-WETTABLE
    3      CONFINED      HARMONIC     1.000E+00    VERTICAL K  NON-WETTABLE
    4      CONFINED      HARMONIC     1.000E+00    VERTICAL K  NON-WETTABLE
    5      CONFINED      HARMONIC     1.000E+00    VERTICAL K  NON-WETTABLE

 WETTING CAPABILITY IS NOT ACTIVE IN ANY LAYER

    HYD. COND. ALONG ROWS =   50.0000     FOR LAYER   1

      VERTICAL HYD. COND. =   10.0000     FOR LAYER   1

         SPECIFIC STORAGE =  1.000000E-04 FOR LAYER   1

           SPECIFIC YIELD =  0.200000     FOR LAYER   1

    HYD. COND. ALONG ROWS =   50.0000     FOR LAYER   2

      VERTICAL HYD. COND. =   10.0000     FOR LAYER   2

         SPECIFIC STORAGE =  1.000000E-04 FOR LAYER   2

    HYD. COND. ALONG ROWS =  1.000000E-02 FOR LAYER   3

      VERTICAL HYD. COND. =  1.000000E-02 FOR LAYER   3

         SPECIFIC STORAGE =  1.000000E-04 FOR LAYER   3

    HYD. COND. ALONG ROWS =   200.000     FOR LAYER   4

      VERTICAL HYD. COND. =   20.0000     FOR LAYER   4

         SPECIFIC STORAGE =  1.000000E-04 FOR LAYER   4

    HYD. COND. ALONG ROWS =   200.000     FOR LAYER   5

      VERTICAL HYD. COND. =   20.0000     FOR LAYER   5

         SPECIFIC STORAGE =  1.000000E-04 FOR LAYER   5

 RIV -- RIVER PACKAGE, VERSION 7, 5/2/2005 INPUT READ FROM UNIT   14
 # RIV package for MODFLOW-2005 generated by Flopy 3.9.1
 No named parameters
 MAXIMUM OF     25 ACTIVE RIVER REACHES AT ONE TIME
 CELL-BY-CELL FLOWS WILL BE SAVED ON UNIT   53
 AUXILIARY RIVER VARIABLE: IFACE           


     0 River parameters

 RCH -- RECHARGE PACKAGE, VERSION 7, 5/2/2005 INPUT READ FROM UNIT   18
 # RCH package for MODFLOW-2005 generated by Flopy 3.9.1
 No named parameters
 OPTION 1 -- RECHARGE TO TOP LAYER
 CELL-BY-CELL FLOWS WILL BE SAVED ON UNIT   53


     0 Recharge parameters

 PCG -- CONJUGATE-GRADIENT SOLUTION PACKAGE, VERSION 7, 5/2/2005
 # PCG package for MODFLOW-2005 generated by Flopy 3.9.1
 MAXIMUM OF     15 CALLS OF SOLUTION ROUTINE
 MAXIMUM OF     20 INTERNAL ITERATIONS PER CALL TO SOLUTION ROUTINE
 MATRIX PRECONDITIONING TYPE :    1



                                    SOLUTION BY THE CONJUGATE-GRADIENT METHOD
                                   -------------------------------------------
                    MAXIMUM NUMBER OF CALLS TO PCG ROUTINE =       15
                        MAXIMUM ITERATIONS PER CALL TO PCG =       20
                               MATRIX PRECONDITIONING TYPE =        1
        RELAXATION FACTOR (ONLY USED WITH PRECOND. TYPE 1) =    0.10000E+01
 PARAMETER OF POLYNOMIAL PRECOND. = 2 (2) OR IS CALCULATED :        2
                         HEAD CHANGE CRITERION FOR CLOSURE =    0.10000E-03
                     RESIDUAL CHANGE CRITERION FOR CLOSURE =    0.10000E+04
            PCG HEAD AND RESIDUAL CHANGE PRINTOUT INTERVAL =        1
     PRINTING FROM SOLVER IS LIMITED(1) OR SUPPRESSED (>1) =        0
                            STEADY-STATE DAMPING PARAMETER =    0.10000E+01
                               TRANSIENT DAMPING PARAMETER =    0.10000E+01

 MNW2 -- MULTI-NODE WELL 2 PACKAGE, VERSION 7.4, 1/5/2017.
    INPUT READ FROM UNIT  34
 # MNW2 package for MODFLOW-2005 generated by Flopy 3.9.1
 MAXIMUM OF    1 ACTIVE MULTI-NODE WELLS AT ONE TIME
 
 MNWPRNT =            0
1
                            STRESS PERIOD NO.    1, LENGTH =   200000.0    
                            -----------------------------------------------

                              NUMBER OF TIME STEPS =     1

                               MULTIPLIER FOR DELT =     1.000

                            INITIAL TIME STEP SIZE =   200000.0    

 REACH NO.  LAYER   ROW   COL     STAGE      CONDUCTANCE     BOTTOM EL.         IFACE           
 -----------------------------------------------------------------------------------------------
      1      1      1     25       320.0          0.1000E+06       315.0           6.000    
      2      1      2     25       320.0          0.1000E+06       315.0           6.000    
      3      1      3     25       320.0          0.1000E+06       315.0           6.000    
      4      1      4     25       320.0          0.1000E+06       315.0           6.000    
      5      1      5     25       320.0          0.1000E+06       315.0           6.000    
      6      1      6     25       320.0          0.1000E+06       315.0           6.000    
      7      1      7     25       320.0          0.1000E+06       315.0           6.000    
      8      1      8     25       320.0          0.1000E+06       315.0           6.000    
      9      1      9     25       320.0          0.1000E+06       315.0           6.000    
     10      1     10     25       320.0          0.1000E+06       315.0           6.000    
     11      1     11     25       320.0          0.1000E+06       315.0           6.000    
     12      1     12     25       320.0          0.1000E+06       315.0           6.000    
     13      1     13     25       320.0          0.1000E+06       315.0           6.000    
     14      1     14     25       320.0          0.1000E+06       315.0           6.000    
     15      1     15     25       320.0          0.1000E+06       315.0           6.000    
     16      1     16     25       320.0          0.1000E+06       315.0           6.000    
     17      1     17     25       320.0          0.1000E+06       315.0           6.000    
     18      1     18     25       320.0          0.1000E+06       315.0           6.000    
     19      1     19     25       320.0          0.1000E+06       315.0           6.000    
     20      1     20     25       320.0          0.1000E+06       315.0           6.000    
     21      1     21     25       320.0          0.1000E+06       315.0           6.000    
     22      1     22     25       320.0          0.1000E+06       315.0           6.000    
     23      1     23     25       320.0          0.1000E+06       315.0           6.000    
     24      1     24     25       320.0          0.1000E+06       315.0           6.000    
     25      1     25     25       320.0          0.1000E+06       315.0           6.000    

     25 RIVER REACHES

                 RECHARGE =  5.000000E-03
 
 MNW2 Input:
 
 
 WELLID             NNODES    LOSSTYPE PUMPLOC  Qlimit  PPFLAG PUMPCAP
 WELL1                   2      SKIN        -1       0       0       0
 
 ZPUMP (Elev.) =     6.200, CONVERTED TO NODE LOCATION: LAY =   5, ROW =  13, COL =  13
 
 MNW2:            1  active well in stress period            1
 
 
 WELLNAME = WELL1               
MNW2 Well well1                active, desired Q = -1.5000E+05 for stress period    1
 
 SOLVING FOR HEAD 


     6 CALLS TO PCG ROUTINE FOR TIME STEP   1 IN STRESS PERIOD    1
    80 TOTAL ITERATIONS

 MAXIMUM HEAD CHANGE FOR EACH ITERATION (1 INDICATES THE FIRST INNER ITERATION):

    HEAD CHANGE    HEAD CHANGE    HEAD CHANGE    HEAD CHANGE    HEAD CHANGE 
   LAYER,ROW,COL  LAYER,ROW,COL  LAYER,ROW,COL  LAYER,ROW,COL  LAYER,ROW,COL
 ---------------------------------------------------------------------------
  1   10.01      0   9.618      0   2.735      0   2.259      0   2.427    
   (  2, 25, 10)  (  2,  5,  7)  (  3, 16,  7)  (  2,  1, 14)  (  2,  1, 16)
  0   1.976      0   1.653      0  0.9986      0 -0.7734      0 -0.6095    
   (  2,  1, 19)  (  1, 22,  1)  (  3,  2,  1)  (  3, 25, 24)  (  3,  4, 24)
  0 -0.3119      0 -0.1980      0  0.1781      0  0.1963      0 -0.9268E-01
   (  2,  1, 22)  (  2,  1, 23)  (  3, 25, 24)  (  3, 25, 24)  (  5, 23,  8)
  0  0.1134      0 -0.6776E-01  0  0.5206E-01  0 -0.2719E-01  0  0.1674E-01
   (  3, 25, 24)  (  5, 25,  1)  (  3,  2, 24)  (  3, 13, 13)  (  3,  1, 24)
  1 -0.4005      0 -0.4156      0 -0.1394      0 -0.1337      0 -0.1200    
   (  2, 25, 10)  (  2,  5,  7)  (  2,  1, 11)  (  3, 24,  6)  (  2,  1, 16)
  0 -0.8388E-01  0 -0.6232E-01  0  0.4782E-01  0 -0.2734E-01  0 -0.2203E-01
   (  3,  8,  1)  (  2,  5, 11)  (  3,  6, 23)  (  3,  1, 12)  (  1, 25,  6)
  0  0.1574E-01  0  0.1126E-01  0  0.5452E-02  0 -0.4203E-02  0 -0.3224E-02
   (  2, 25,  8)  (  3,  2, 24)  (  2, 25,  6)  (  2, 22,  1)  (  3,  2, 23)
  0 -0.2528E-02  0  0.1329E-02  0 -0.1305E-02  0 -0.1057E-02  0  0.8725E-03
   (  3, 25,  1)  (  3, 24,  6)  (  3,  2, 24)  (  1, 22,  9)  (  2, 25, 11)
  1 -0.6113E-01  0 -0.4931E-01  0 -0.3956E-01  0 -0.3584E-01  0 -0.2215E-01
   (  5, 13, 13)  (  5,  1, 13)  (  5, 21,  1)  (  2, 12, 15)  (  1, 25,  7)
  0  0.1720E-01  0  0.1321E-01  0  0.9062E-02  0  0.6773E-02  0  0.6397E-02
   (  3, 25, 24)  (  3, 25, 24)  (  3, 25, 24)  (  3,  5, 24)  (  2, 25, 12)
  0 -0.4540E-02  0 -0.2827E-02  0 -0.2187E-02  0 -0.1905E-02  0  0.1029E-02
   (  1, 25,  9)  (  5, 25,  1)  (  3, 25, 24)  (  1, 25,  4)  (  3, 25, 11)
  0  0.1028E-02  0 -0.7623E-03  0 -0.3324E-03  0 -0.3977E-03  0  0.2021E-03
   (  2, 25,  6)  (  3,  2, 24)  (  3, 25, 23)  (  3,  1, 24)  (  3, 25,  1)
  1  0.2849E-02  0  0.2884E-02  0  0.1088E-02  0  0.1048E-02  0  0.8180E-03
   (  2, 25, 10)  (  2,  5,  8)  (  2,  1, 11)  (  3, 25,  1)  (  2,  1, 17)
  0  0.6003E-03  0  0.4577E-03  0 -0.3559E-03  0  0.2066E-03  0  0.1760E-03
   (  2,  1, 19)  (  2,  5, 11)  (  3,  7, 24)  (  3,  1, 13)  (  2, 25,  6)
  0 -0.1145E-03  0 -0.8586E-04  1  0.4419E-03  0  0.3554E-03  0  0.2871E-03
   (  2, 25,  7)  (  3,  2, 24)  (  5, 13, 13)  (  5,  1, 13)  (  5, 25,  1)
  0  0.2652E-03  0  0.1576E-03  0 -0.1262E-03  0 -0.9748E-04  1 -0.5581E-04
   (  1, 11, 15)  (  1, 25,  7)  (  3, 25, 24)  (  3, 25, 24)  (  2, 25, 15)

 MAXIMUM RESIDUAL FOR EACH ITERATION (1 INDICATES THE FIRST INNER ITERATION):

    RESIDUAL       RESIDUAL       RESIDUAL       RESIDUAL       RESIDUAL    
   LAYER,ROW,COL  LAYER,ROW,COL  LAYER,ROW,COL  LAYER,ROW,COL  LAYER,ROW,COL
 ---------------------------------------------------------------------------
  1  0.9184E+05  0  0.7223E+05  0  0.6380E+05  0  0.5347E+05  0  0.3824E+05
   (  4, 13, 13)  (  4, 13, 13)  (  4, 13, 13)  (  4, 13, 13)  (  4, 13, 13)
  0  0.2074E+05  0   8246.      0   7356.      0  -7479.      0  -5923.    
   (  4, 13, 13)  (  5, 12, 14)  (  5, 12, 14)  (  5, 13, 13)  (  5, 13, 13)
  0  -4970.      0  -3991.      0  -2573.      0  -1482.      0  -1048.    
   (  4, 13, 13)  (  4, 13, 13)  (  4, 13, 13)  (  4, 13, 13)  (  4, 13, 13)
  0  -942.3      0  -754.9      0   566.4      0   311.7      0   173.1    
   (  5, 12, 14)  (  5, 12, 14)  (  5, 13, 13)  (  5, 13, 13)  (  5, 13, 13)
  1   823.3      0   1443.      0   1413.      0   1299.      0   856.3    
   (  5, 13, 13)  (  5, 13, 13)  (  5, 13, 13)  (  5, 13, 13)  (  5, 13, 13)
  0   430.3      0  -298.9      0  -238.3      0  -150.1      0   122.1    
   (  4, 13, 13)  (  5, 12, 13)  (  5, 14, 14)  (  2,  2, 23)  (  5, 12, 14)
  0   112.2      0   78.99      0   44.70      0  -32.16      0  -22.40    
   (  5, 12, 14)  (  5, 12, 14)  (  5, 14, 12)  (  2,  3, 22)  (  2,  2, 21)
  0   25.87      0   22.48      0   17.71      0   11.60      0   9.008    
   (  5, 13, 13)  (  5, 13, 13)  (  5, 13, 13)  (  5, 13, 13)  (  5, 13, 13)
  1   1830.      0   1649.      0   1439.      0   1047.      0   766.5    
   (  4, 13, 13)  (  4, 13, 13)  (  4, 13, 13)  (  4, 13, 13)  (  4, 13, 13)
  0   437.9      0  -151.3      0  -164.6      0  -159.1      0  -135.3    
   (  4, 13, 13)  (  5, 13, 13)  (  5, 13, 13)  (  5, 13, 13)  (  5, 13, 13)
  0  -121.8      0  -97.85      0  -68.10      0  -44.77      0  -35.33    
   (  4, 13, 13)  (  4, 13, 13)  (  4, 13, 13)  (  4, 13, 13)  (  4, 13, 13)
  0  -21.02      0  -17.08      0  -12.34      0  -7.600      0  -3.768    
   (  4, 13, 13)  (  5, 14, 12)  (  5, 14, 12)  (  5, 12, 14)  (  5, 12, 14)
  1  -12.42      0  -14.57      0  -14.67      0  -14.18      0  -11.70    
   (  4, 13, 13)  (  4, 13, 13)  (  4, 13, 13)  (  4, 13, 13)  (  4, 13, 13)
  0  -8.365      0  -5.326      0  -3.031      0  -1.518      0  0.8782    
   (  4, 13, 13)  (  4, 13, 13)  (  4, 13, 13)  (  4, 13, 13)  (  2,  1, 21)
  0  0.6655      0 -0.4477      1  -13.27      0  -12.00      0  -10.51    
   (  2,  1, 22)  (  1,  2, 22)  (  4, 13, 13)  (  4, 13, 13)  (  4, 13, 13)
  0  -7.590      0  -5.603      0  -3.128      0   1.233      1   1.040    
   (  4, 13, 13)  (  4, 13, 13)  (  4, 13, 13)  (  5, 13, 13)  (  5, 13, 13)



 OUTPUT CONTROL FOR STRESS PERIOD    1   TIME STEP    1
    PRINT BUDGET
    SAVE BUDGET
    PRINT HEAD FOR ALL LAYERS
    SAVE HEAD FOR ALL LAYERS
 UBDSV2 SAVING "   CONSTANT HEAD" ON UNIT  53 AT TIME STEP  1, STRESS PERIOD   1
 UBDSV1 SAVING "FLOW RIGHT FACE " ON UNIT  53 AT TIME STEP  1, STRESS PERIOD   1
 UBDSV1 SAVING "FLOW FRONT FACE " ON UNIT  53 AT TIME STEP  1, STRESS PERIOD   1
 UBDSV1 SAVING "FLOW LOWER FACE " ON UNIT  53 AT TIME STEP  1, STRESS PERIOD   1
 UBDSV4 SAVING "   RIVER LEAKAGE" ON UNIT  53 AT TIME STEP  1, STRESS PERIOD   1
 UBDSV3 SAVING "        RECHARGE" ON UNIT  53 AT TIME STEP  1, STRESS PERIOD   1
1
              HEAD IN LAYER   1 AT END OF TIME STEP   1 IN STRESS PERIOD    1
  ---------------------------------------------------------------------------

            1           2           3           4           5           6           7           8           9          10
           11          12          13          14          15          16          17          18          19          20
           21          22          23          24          25
 ........................................................................................................................
   1    339.1       339.1       339.0       338.9       338.8       338.6       338.4       338.1       337.8       337.4    
        337.0       336.6       336.0       335.4       334.7       334.0       333.1       332.1       331.0       329.7    
        328.3       326.7       324.8       322.7       320.1    
   2    339.1       339.1       339.0       338.9       338.8       338.6       338.4       338.1       337.8       337.4    
        337.0       336.5       336.0       335.4       334.7       334.0       333.1       332.1       331.0       329.7    
        328.3       326.7       324.8       322.7       320.1    
   3    339.1       339.1       339.0       338.9       338.8       338.6       338.4       338.1       337.8       337.4    
        337.0       336.5       336.0       335.4       334.7       334.0       333.1       332.1       331.0       329.7    
        328.3       326.7       324.8       322.7       320.1    
   4    339.1       339.1       339.0       338.9       338.8       338.6       338.4       338.1       337.8       337.4    
        337.0       336.5       336.0       335.4       334.7       334.0       333.1       332.1       331.0       329.7    
        328.3       326.7       324.8       322.7       320.1    
   5    339.1       339.1       339.0       338.9       338.8       338.6       338.3       338.1       337.8       337.4    
        337.0       336.5       336.0       335.4       334.7       333.9       333.1       332.1       331.0       329.7    
        328.3       326.7       324.8       322.7       320.1    
   6    339.1       339.1       339.0       338.9       338.8       338.6       338.3       338.1       337.8       337.4    
        337.0       336.5       336.0       335.4       334.7       333.9       333.1       332.1       331.0       329.7    
        328.3       326.7       324.8       322.7       320.1    
   7    339.1       339.1       339.0       338.9       338.7       338.6       338.3       338.1       337.8       337.4    
        337.0       336.5       336.0       335.4       334.7       333.9       333.1       332.1       331.0       329.7    
        328.3       326.7       324.8       322.7       320.1    
   8    339.1       339.1       339.0       338.9       338.7       338.6       338.3       338.1       337.7       337.4    
        337.0       336.5       336.0       335.4       334.7       333.9       333.1       332.1       331.0       329.7    
        328.3       326.7       324.8       322.7       320.1    
   9    339.1       339.1       339.0       338.9       338.7       338.5       338.3       338.0       337.7       337.4    
        337.0       336.5       335.9       335.3       334.7       333.9       333.0       332.1       331.0       329.7    
        328.3       326.7       324.8       322.7       320.1    
  10    339.1       339.1       339.0       338.9       338.7       338.5       338.3       338.0       337.7       337.4    
        336.9       336.5       335.9       335.3       334.7       333.9       333.0       332.1       331.0       329.7    
        328.3       326.7       324.8       322.7       320.1    
  11    339.1       339.1       339.0       338.9       338.7       338.5       338.3       338.0       337.7       337.3    
        336.9       336.5       335.9       335.3       334.6       333.9       333.0       332.1       331.0       329.7    
        328.3       326.7       324.8       322.7       320.1    
  12    339.1       339.1       339.0       338.9       338.7       338.5       338.3       338.0       337.7       337.3    
        336.9       336.4       335.9       335.3       334.6       333.9       333.0       332.0       331.0       329.7    
        328.3       326.7       324.8       322.7       320.1    
  13    339.1       339.1       339.0       338.9       338.7       338.5       338.3       338.0       337.7       337.3    
        336.9       336.4       335.9       335.3       334.6       333.9       333.0       332.0       330.9       329.7    
        328.3       326.7       324.8       322.7       320.1    
  14    339.1       339.1       339.0       338.9       338.7       338.5       338.3       338.0       337.7       337.3    
        336.9       336.4       335.9       335.3       334.6       333.9       333.0       332.0       331.0       329.7    
        328.3       326.7       324.8       322.7       320.1    
  15    339.1       339.1       339.0       338.9       338.7       338.5       338.3       338.0       337.7       337.3    
        336.9       336.5       335.9       335.3       334.6       333.9       333.0       332.1       331.0       329.7    
        328.3       326.7       324.8       322.7       320.1    
  16    339.1       339.1       339.0       338.9       338.7       338.5       338.3       338.0       337.7       337.4    
        336.9       336.5       335.9       335.3       334.7       333.9       333.0       332.1       331.0       329.7    
        328.3       326.7       324.8       322.7       320.1    
  17    339.1       339.1       339.0       338.9       338.7       338.5       338.3       338.0       337.7       337.4    
        337.0       336.5       335.9       335.3       334.7       333.9       333.0       332.1       331.0       329.7    
        328.3       326.7       324.8       322.7       320.1    
  18    339.1       339.1       339.0       338.9       338.7       338.6       338.3       338.1       337.7       337.4    
        337.0       336.5       336.0       335.4       334.7       333.9       333.1       332.1       331.0       329.7    
        328.3       326.7       324.8       322.7       320.1    
  19    339.1       339.1       339.0       338.9       338.7       338.6       338.3       338.1       337.8       337.4    
        337.0       336.5       336.0       335.4       334.7       333.9       333.1       332.1       331.0       329.7    
        328.3       326.7       324.8       322.7       320.1    
  20    339.1       339.1       339.0       338.9       338.8       338.6       338.3       338.1       337.8       337.4    
        337.0       336.5       336.0       335.4       334.7       333.9       333.1       332.1       331.0       329.7    
        328.3       326.7       324.8       322.7       320.1    
  21    339.1       339.1       339.0       338.9       338.8       338.6       338.3       338.1       337.8       337.4    
        337.0       336.5       336.0       335.4       334.7       333.9       333.1       332.1       331.0       329.7    
        328.3       326.7       324.8       322.7       320.1    
  22    339.1       339.1       339.0       338.9       338.8       338.6       338.4       338.1       337.8       337.4    
        337.0       336.5       336.0       335.4       334.7       334.0       333.1       332.1       331.0       329.7    
        328.3       326.7       324.8       322.7       320.1    
  23    339.1       339.1       339.0       338.9       338.8       338.6       338.4       338.1       337.8       337.4    
        337.0       336.5       336.0       335.4       334.7       334.0       333.1       332.1       331.0       329.7    
        328.3       326.7       324.8       322.7       320.1    
  24    339.1       339.1       339.0       338.9       338.8       338.6       338.4       338.1       337.8       337.4    
        337.0       336.5       336.0       335.4       334.7       334.0       333.1       332.1       331.0       329.7    
        328.3       326.7       324.8       322.7       320.1    
  25    339.1       339.1       339.0       338.9       338.8       338.6       338.4       338.1       337.8       337.4    
        337.0       336.6       336.0       335.4       334.7       334.0       333.1       332.1       331.0       329.7    
        328.3       326.7       324.8       322.7       320.1    
1
              HEAD IN LAYER   2 AT END OF TIME STEP   1 IN STRESS PERIOD    1
  ---------------------------------------------------------------------------

            1           2           3           4           5           6           7           8           9          10
           11          12          13          14          15          16          17          18          19          20
           21          22          23          24          25
 ........................................................................................................................
   1    339.1       339.1       339.0       338.9       338.7       338.6       338.3       338.1       337.8       337.4    
        337.0       336.5       336.0       335.4       334.7       333.9       333.1       332.1       331.0       329.7    
        328.3       326.7       324.8       322.7       320.3    
   2    339.1       339.1       339.0       338.9       338.7       338.6       338.3       338.1       337.8       337.4    
        337.0       336.5       336.0       335.4       334.7       333.9       333.1       332.1       331.0       329.7    
        328.3       326.7       324.8       322.7       320.3    
   3    339.1       339.1       339.0       338.9       338.7       338.6       338.3       338.1       337.8       337.4    
        337.0       336.5       336.0       335.4       334.7       333.9       333.1       332.1       331.0       329.7    
        328.3       326.7       324.8       322.7       320.3    
   4    339.1       339.1       339.0       338.9       338.7       338.6       338.3       338.1       337.8       337.4    
        337.0       336.5       336.0       335.4       334.7       333.9       333.1       332.1       331.0       329.7    
        328.3       326.7       324.8       322.7       320.3    
   5    339.1       339.1       339.0       338.9       338.7       338.5       338.3       338.1       337.7       337.4    
        337.0       336.5       336.0       335.4       334.7       333.9       333.1       332.1       331.0       329.7    
        328.3       326.7       324.8       322.7       320.3    
   6    339.1       339.1       339.0       338.9       338.7       338.5       338.3       338.1       337.7       337.4    
        337.0       336.5       336.0       335.4       334.7       333.9       333.1       332.1       331.0       329.7    
        328.3       326.7       324.8       322.7       320.3    
   7    339.1       339.0       339.0       338.9       338.7       338.5       338.3       338.0       337.7       337.4    
        337.0       336.5       336.0       335.4       334.7       333.9       333.0       332.1       331.0       329.7    
        328.3       326.7       324.8       322.7       320.3    
   8    339.1       339.0       339.0       338.9       338.7       338.5       338.3       338.0       337.7       337.4    
        336.9       336.5       335.9       335.3       334.7       333.9       333.0       332.1       331.0       329.7    
        328.3       326.7       324.8       322.7       320.3    
   9    339.1       339.0       339.0       338.9       338.7       338.5       338.3       338.0       337.7       337.3    
        336.9       336.5       335.9       335.3       334.6       333.9       333.0       332.1       331.0       329.7    
        328.3       326.7       324.8       322.7       320.3    
  10    339.1       339.0       339.0       338.9       338.7       338.5       338.3       338.0       337.7       337.3    
        336.9       336.4       335.9       335.3       334.6       333.9       333.0       332.0       330.9       329.7    
        328.3       326.7       324.8       322.7       320.3    
  11    339.1       339.0       339.0       338.8       338.7       338.5       338.3       338.0       337.7       337.3    
        336.9       336.4       335.9       335.3       334.6       333.9       333.0       332.0       330.9       329.7    
        328.3       326.7       324.8       322.7       320.3    
  12    339.1       339.0       339.0       338.8       338.7       338.5       338.3       338.0       337.7       337.3    
        336.9       336.4       335.9       335.3       334.6       333.9       333.0       332.0       330.9       329.7    
        328.3       326.7       324.8       322.7       320.3    
  13    339.1       339.0       339.0       338.8       338.7       338.5       338.3       338.0       337.7       337.3    
        336.9       336.4       335.9       335.3       334.6       333.9       333.0       332.0       330.9       329.7    
        328.3       326.7       324.8       322.7       320.3    
  14    339.1       339.0       339.0       338.8       338.7       338.5       338.3       338.0       337.7       337.3    
        336.9       336.4       335.9       335.3       334.6       333.9       333.0       332.0       330.9       329.7    
        328.3       326.7       324.8       322.7       320.3    
  15    339.1       339.0       339.0       338.8       338.7       338.5       338.3       338.0       337.7       337.3    
        336.9       336.4       335.9       335.3       334.6       333.9       333.0       332.0       330.9       329.7    
        328.3       326.7       324.8       322.7       320.3    
  16    339.1       339.0       339.0       338.9       338.7       338.5       338.3       338.0       337.7       337.3    
        336.9       336.4       335.9       335.3       334.6       333.9       333.0       332.0       330.9       329.7    
        328.3       326.7       324.8       322.7       320.3    
  17    339.1       339.0       339.0       338.9       338.7       338.5       338.3       338.0       337.7       337.3    
        336.9       336.5       335.9       335.3       334.6       333.9       333.0       332.1       331.0       329.7    
        328.3       326.7       324.8       322.7       320.3    
  18    339.1       339.0       339.0       338.9       338.7       338.5       338.3       338.0       337.7       337.4    
        336.9       336.5       335.9       335.3       334.7       333.9       333.0       332.1       331.0       329.7    
        328.3       326.7       324.8       322.7       320.3    
  19    339.1       339.0       339.0       338.9       338.7       338.5       338.3       338.0       337.7       337.4    
        337.0       336.5       336.0       335.4       334.7       333.9       333.0       332.1       331.0       329.7    
        328.3       326.7       324.8       322.7       320.3    
  20    339.1       339.1       339.0       338.9       338.7       338.5       338.3       338.1       337.7       337.4    
        337.0       336.5       336.0       335.4       334.7       333.9       333.1       332.1       331.0       329.7    
        328.3       326.7       324.8       322.7       320.3    
  21    339.1       339.1       339.0       338.9       338.7       338.5       338.3       338.1       337.7       337.4    
        337.0       336.5       336.0       335.4       334.7       333.9       333.1       332.1       331.0       329.7    
        328.3       326.7       324.8       322.7       320.3    
  22    339.1       339.1       339.0       338.9       338.7       338.6       338.3       338.1       337.8       337.4    
        337.0       336.5       336.0       335.4       334.7       333.9       333.1       332.1       331.0       329.7    
        328.3       326.7       324.8       322.7       320.3    
  23    339.1       339.1       339.0       338.9       338.7       338.6       338.3       338.1       337.8       337.4    
        337.0       336.5       336.0       335.4       334.7       333.9       333.1       332.1       331.0       329.7    
        328.3       326.7       324.8       322.7       320.3    
  24    339.1       339.1       339.0       338.9       338.7       338.6       338.3       338.1       337.8       337.4    
        337.0       336.5       336.0       335.4       334.7       333.9       333.1       332.1       331.0       329.7    
        328.3       326.7       324.8       322.7       320.3    
  25    339.1       339.1       339.0       338.9       338.7       338.6       338.3       338.1       337.8       337.4    
        337.0       336.5       336.0       335.4       334.7       333.9       333.1       332.1       331.0       329.7    
        328.3       326.7       324.8       322.7       320.3    
1
              HEAD IN LAYER   3 AT END OF TIME STEP   1 IN STRESS PERIOD    1
  ---------------------------------------------------------------------------

            1           2           3           4           5           6           7           8           9          10
           11          12          13          14          15          16          17          18          19          20
           21          22          23          24          25
 ........................................................................................................................
   1    335.4       335.4       335.4       335.3       335.2       335.1       334.9       334.8       334.6       334.4    
        334.1       333.8       333.5       333.2       332.8       332.4       331.9       331.3       330.7       330.1    
        329.3       328.5       327.5       326.4       325.3    
   2    335.4       335.4       335.4       335.3       335.2       335.1       334.9       334.8       334.6       334.4    
        334.1       333.8       333.5       333.2       332.8       332.3       331.9       331.3       330.7       330.1    
        329.3       328.5       327.5       326.4       325.2    
   3    335.4       335.4       335.4       335.3       335.2       335.1       334.9       334.8       334.6       334.3    
        334.1       333.8       333.5       333.2       332.8       332.3       331.9       331.3       330.7       330.1    
        329.3       328.5       327.5       326.4       325.2    
   4    335.4       335.4       335.4       335.3       335.2       335.1       334.9       334.7       334.6       334.3    
        334.1       333.8       333.5       333.1       332.7       332.3       331.8       331.3       330.7       330.1    
        329.3       328.5       327.5       326.4       325.2    
   5    335.4       335.4       335.3       335.3       335.2       335.1       334.9       334.7       334.5       334.3    
        334.1       333.8       333.5       333.1       332.7       332.3       331.8       331.3       330.7       330.0    
        329.3       328.5       327.5       326.4       325.2    
   6    335.4       335.4       335.3       335.3       335.2       335.0       334.9       334.7       334.5       334.3    
        334.0       333.7       333.4       333.1       332.7       332.3       331.8       331.3       330.7       330.0    
        329.3       328.4       327.5       326.4       325.2    
   7    335.4       335.4       335.3       335.3       335.2       335.0       334.9       334.7       334.5       334.2    
        334.0       333.7       333.4       333.0       332.7       332.2       331.8       331.3       330.7       330.0    
        329.3       328.4       327.5       326.4       325.2    
   8    335.4       335.4       335.3       335.2       335.1       335.0       334.8       334.7       334.5       334.2    
        333.9       333.6       333.3       333.0       332.6       332.2       331.7       331.2       330.7       330.0    
        329.3       328.4       327.5       326.4       325.2    
   9    335.4       335.4       335.3       335.2       335.1       335.0       334.8       334.6       334.4       334.2    
        333.9       333.6       333.3       332.9       332.6       332.2       331.7       331.2       330.6       330.0    
        329.2       328.4       327.5       326.4       325.2    
  10    335.4       335.4       335.3       335.2       335.1       335.0       334.8       334.6       334.4       334.1    
        333.8       333.5       333.2       332.8       332.5       332.1       331.7       331.2       330.6       330.0    
        329.2       328.4       327.5       326.4       325.2    
  11    335.4       335.3       335.3       335.2       335.1       335.0       334.8       334.6       334.3       334.1    
        333.8       333.4       333.0       332.7       332.4       332.1       331.6       331.2       330.6       330.0    
        329.2       328.4       327.5       326.4       325.2    
  12    335.4       335.3       335.3       335.2       335.1       335.0       334.8       334.6       334.3       334.0    
        333.7       333.3       332.8       332.6       332.4       332.0       331.6       331.1       330.6       329.9    
        329.2       328.4       327.5       326.4       325.2    
  13    335.4       335.3       335.3       335.2       335.1       335.0       334.8       334.6       334.3       334.0    
        333.6       333.1       332.3       332.5       332.3       332.0       331.6       331.1       330.6       329.9    
        329.2       328.4       327.5       326.4       325.2    
  14    335.4       335.3       335.3       335.2       335.1       335.0       334.8       334.6       334.3       334.0    
        333.7       333.3       332.8       332.6       332.4       332.0       331.6       331.1       330.6       329.9    
        329.2       328.4       327.5       326.4       325.2    
  15    335.4       335.3       335.3       335.2       335.1       335.0       334.8       334.6       334.3       334.1    
        333.8       333.4       333.0       332.7       332.4       332.1       331.6       331.2       330.6       330.0    
        329.2       328.4       327.5       326.4       325.2    
  16    335.4       335.4       335.3       335.2       335.1       335.0       334.8       334.6       334.4       334.1    
        333.8       333.5       333.2       332.8       332.5       332.1       331.7       331.2       330.6       330.0    
        329.2       328.4       327.5       326.4       325.2    
  17    335.4       335.4       335.3       335.2       335.1       335.0       334.8       334.6       334.4       334.2    
        333.9       333.6       333.3       332.9       332.6       332.2       331.7       331.2       330.6       330.0    
        329.2       328.4       327.5       326.4       325.2    
  18    335.4       335.4       335.3       335.2       335.1       335.0       334.8       334.7       334.5       334.2    
        333.9       333.6       333.3       333.0       332.6       332.2       331.7       331.2       330.7       330.0    
        329.3       328.4       327.5       326.4       325.2    
  19    335.4       335.4       335.3       335.3       335.2       335.0       334.9       334.7       334.5       334.2    
        334.0       333.7       333.4       333.0       332.7       332.2       331.8       331.3       330.7       330.0    
        329.3       328.4       327.5       326.4       325.2    
  20    335.4       335.4       335.3       335.3       335.2       335.0       334.9       334.7       334.5       334.3    
        334.0       333.7       333.4       333.1       332.7       332.3       331.8       331.3       330.7       330.0    
        329.3       328.4       327.5       326.4       325.2    
  21    335.4       335.4       335.3       335.3       335.2       335.1       334.9       334.7       334.5       334.3    
        334.1       333.8       333.5       333.1       332.7       332.3       331.8       331.3       330.7       330.0    
        329.3       328.5       327.5       326.4       325.2    
  22    335.4       335.4       335.4       335.3       335.2       335.1       334.9       334.7       334.6       334.3    
        334.1       333.8       333.5       333.1       332.7       332.3       331.8       331.3       330.7       330.1    
        329.3       328.5       327.5       326.4       325.2    
  23    335.4       335.4       335.4       335.3       335.2       335.1       334.9       334.8       334.6       334.3    
        334.1       333.8       333.5       333.2       332.8       332.3       331.9       331.3       330.7       330.1    
        329.3       328.5       327.5       326.4       325.2    
  24    335.4       335.4       335.4       335.3       335.2       335.1       334.9       334.8       334.6       334.4    
        334.1       333.8       333.5       333.2       332.8       332.3       331.9       331.3       330.7       330.1    
        329.3       328.5       327.5       326.4       325.2    
  25    335.4       335.4       335.4       335.3       335.2       335.1       334.9       334.8       334.6       334.4    
        334.1       333.8       333.5       333.2       332.8       332.4       331.9       331.3       330.7       330.1    
        329.3       328.5       327.5       326.4       325.3    
1
              HEAD IN LAYER   4 AT END OF TIME STEP   1 IN STRESS PERIOD    1
  ---------------------------------------------------------------------------

            1           2           3           4           5           6           7           8           9          10
           11          12          13          14          15          16          17          18          19          20
           21          22          23          24          25
 ........................................................................................................................
   1    331.8       331.8       331.7       331.7       331.7       331.6       331.5       331.5       331.4       331.3    
        331.2       331.1       331.0       330.9       330.8       330.8       330.7       330.6       330.5       330.4    
        330.3       330.3       330.2       330.2       330.2    
   2    331.8       331.8       331.7       331.7       331.7       331.6       331.5       331.5       331.4       331.3    
        331.2       331.1       331.0       330.9       330.8       330.7       330.7       330.6       330.5       330.4    
        330.3       330.3       330.2       330.2       330.1    
   3    331.8       331.8       331.7       331.7       331.6       331.6       331.5       331.5       331.4       331.3    
        331.2       331.1       331.0       330.9       330.8       330.7       330.6       330.6       330.5       330.4    
        330.3       330.3       330.2       330.2       330.1    
   4    331.8       331.7       331.7       331.7       331.6       331.6       331.5       331.4       331.3       331.3    
        331.2       331.1       331.0       330.9       330.8       330.7       330.6       330.5       330.5       330.4    
        330.3       330.3       330.2       330.2       330.1    
   5    331.8       331.7       331.7       331.7       331.6       331.6       331.5       331.4       331.3       331.2    
        331.1       331.0       330.9       330.8       330.8       330.7       330.6       330.5       330.4       330.4    
        330.3       330.2       330.2       330.1       330.1    
   6    331.7       331.7       331.7       331.7       331.6       331.5       331.5       331.4       331.3       331.2    
        331.1       331.0       330.9       330.8       330.7       330.6       330.6       330.5       330.4       330.3    
        330.3       330.2       330.2       330.1       330.1    
   7    331.7       331.7       331.7       331.6       331.6       331.5       331.4       331.3       331.2       331.1    
        331.0       330.9       330.8       330.7       330.6       330.6       330.5       330.4       330.4       330.3    
        330.3       330.2       330.2       330.1       330.1    
   8    331.7       331.7       331.7       331.6       331.6       331.5       331.4       331.3       331.2       331.1    
        330.9       330.8       330.7       330.6       330.6       330.5       330.5       330.4       330.3       330.3    
        330.2       330.2       330.1       330.1       330.1    
   9    331.7       331.7       331.7       331.6       331.5       331.5       331.4       331.2       331.1       331.0    
        330.8       330.7       330.6       330.5       330.5       330.4       330.4       330.4       330.3       330.3    
        330.2       330.2       330.1       330.1       330.1    
  10    331.7       331.7       331.6       331.6       331.5       331.4       331.3       331.2       331.1       330.9    
        330.7       330.6       330.4       330.4       330.4       330.3       330.3       330.3       330.3       330.2    
        330.2       330.2       330.1       330.1       330.1    
  11    331.7       331.7       331.6       331.6       331.5       331.4       331.3       331.2       331.0       330.8    
        330.6       330.4       330.2       330.2       330.2       330.3       330.3       330.3       330.2       330.2    
        330.2       330.1       330.1       330.1       330.1    
  12    331.7       331.7       331.6       331.6       331.5       331.4       331.3       331.1       331.0       330.7    
        330.5       330.1       329.8       329.9       330.1       330.2       330.2       330.2       330.2       330.2    
        330.2       330.1       330.1       330.1       330.1    
  13    331.7       331.7       331.6       331.6       331.5       331.4       331.3       331.1       330.9       330.7    
        330.4       329.8       328.7       329.7       330.0       330.1       330.2       330.2       330.2       330.2    
        330.2       330.1       330.1       330.1       330.1    
  14    331.7       331.7       331.6       331.6       331.5       331.4       331.3       331.1       331.0       330.7    
        330.5       330.1       329.8       329.9       330.1       330.2       330.2       330.2       330.2       330.2    
        330.2       330.1       330.1       330.1       330.1    
  15    331.7       331.7       331.6       331.6       331.5       331.4       331.3       331.2       331.0       330.8    
        330.6       330.4       330.2       330.2       330.2       330.3       330.3       330.3       330.2       330.2    
        330.2       330.1       330.1       330.1       330.1    
  16    331.7       331.7       331.6       331.6       331.5       331.4       331.3       331.2       331.1       330.9    
        330.7       330.6       330.4       330.4       330.4       330.3       330.3       330.3       330.3       330.2    
        330.2       330.2       330.1       330.1       330.1    
  17    331.7       331.7       331.7       331.6       331.5       331.5       331.4       331.2       331.1       331.0    
        330.8       330.7       330.6       330.5       330.5       330.4       330.4       330.4       330.3       330.3    
        330.2       330.2       330.1       330.1       330.1    
  18    331.7       331.7       331.7       331.6       331.6       331.5       331.4       331.3       331.2       331.1    
        330.9       330.8       330.7       330.6       330.6       330.5       330.5       330.4       330.3       330.3    
        330.2       330.2       330.1       330.1       330.1    
  19    331.7       331.7       331.7       331.6       331.6       331.5       331.4       331.3       331.2       331.1    
        331.0       330.9       330.8       330.7       330.6       330.6       330.5       330.4       330.4       330.3    
        330.3       330.2       330.2       330.1       330.1    
  20    331.7       331.7       331.7       331.7       331.6       331.5       331.5       331.4       331.3       331.2    
        331.1       331.0       330.9       330.8       330.7       330.6       330.6       330.5       330.4       330.3    
        330.3       330.2       330.2       330.1       330.1    
  21    331.8       331.7       331.7       331.7       331.6       331.6       331.5       331.4       331.3       331.2    
        331.1       331.0       330.9       330.8       330.8       330.7       330.6       330.5       330.4       330.4    
        330.3       330.2       330.2       330.1       330.1    
  22    331.8       331.7       331.7       331.7       331.6       331.6       331.5       331.4       331.3       331.3    
        331.2       331.1       331.0       330.9       330.8       330.7       330.6       330.5       330.5       330.4    
        330.3       330.3       330.2       330.2       330.1    
  23    331.8       331.8       331.7       331.7       331.6       331.6       331.5       331.5       331.4       331.3    
        331.2       331.1       331.0       330.9       330.8       330.7       330.6       330.6       330.5       330.4    
        330.3       330.3       330.2       330.2       330.1    
  24    331.8       331.8       331.7       331.7       331.7       331.6       331.5       331.5       331.4       331.3    
        331.2       331.1       331.0       330.9       330.8       330.7       330.7       330.6       330.5       330.4    
        330.3       330.3       330.2       330.2       330.1    
  25    331.8       331.8       331.7       331.7       331.7       331.6       331.5       331.5       331.4       331.3    
        331.2       331.1       331.0       330.9       330.8       330.8       330.7       330.6       330.5       330.4    
        330.3       330.3       330.2       330.2       330.2    
1
              HEAD IN LAYER   5 AT END OF TIME STEP   1 IN STRESS PERIOD    1
  ---------------------------------------------------------------------------

            1           2           3           4           5           6           7           8           9          10
           11          12          13          14          15          16          17          18          19          20
           21          22          23          24          25
 ........................................................................................................................
   1    331.8       331.8       331.7       331.7       331.7       331.6       331.5       331.5       331.4       331.3    
        331.2       331.1       331.0       330.9       330.8       330.8       330.7       330.6       330.5       330.4    
        330.3       330.3       330.2       330.2       330.2    
   2    331.8       331.8       331.7       331.7       331.6       331.6       331.5       331.5       331.4       331.3    
        331.2       331.1       331.0       330.9       330.8       330.7       330.7       330.6       330.5       330.4    
        330.3       330.3       330.2       330.2       330.2    
   3    331.8       331.7       331.7       331.7       331.6       331.6       331.5       331.4       331.4       331.3    
        331.2       331.1       331.0       330.9       330.8       330.7       330.6       330.6       330.5       330.4    
        330.3       330.3       330.2       330.2       330.2    
   4    331.8       331.7       331.7       331.7       331.6       331.6       331.5       331.4       331.3       331.3    
        331.2       331.1       331.0       330.9       330.8       330.7       330.6       330.5       330.5       330.4    
        330.3       330.3       330.2       330.2       330.1    
   5    331.7       331.7       331.7       331.7       331.6       331.6       331.5       331.4       331.3       331.2    
        331.1       331.0       330.9       330.8       330.8       330.7       330.6       330.5       330.4       330.4    
        330.3       330.2       330.2       330.2       330.1    
   6    331.7       331.7       331.7       331.6       331.6       331.5       331.5       331.4       331.3       331.2    
        331.1       331.0       330.9       330.8       330.7       330.6       330.6       330.5       330.4       330.3    
        330.3       330.2       330.2       330.1       330.1    
   7    331.7       331.7       331.7       331.6       331.6       331.5       331.4       331.3       331.2       331.1    
        331.0       330.9       330.8       330.7       330.6       330.6       330.5       330.4       330.4       330.3    
        330.3       330.2       330.2       330.1       330.1    
   8    331.7       331.7       331.7       331.6       331.6       331.5       331.4       331.3       331.2       331.1    
        330.9       330.8       330.7       330.6       330.6       330.5       330.5       330.4       330.3       330.3    
        330.2       330.2       330.1       330.1       330.1    
   9    331.7       331.7       331.6       331.6       331.5       331.4       331.4       331.2       331.1       331.0    
        330.8       330.7       330.6       330.5       330.5       330.4       330.4       330.4       330.3       330.3    
        330.2       330.2       330.1       330.1       330.1    
  10    331.7       331.7       331.6       331.6       331.5       331.4       331.3       331.2       331.1       330.9    
        330.7       330.6       330.4       330.4       330.4       330.3       330.3       330.3       330.3       330.2    
        330.2       330.2       330.1       330.1       330.1    
  11    331.7       331.7       331.6       331.6       331.5       331.4       331.3       331.2       331.0       330.8    
        330.6       330.4       330.2       330.2       330.2       330.3       330.3       330.3       330.2       330.2    
        330.2       330.1       330.1       330.1       330.1    
  12    331.7       331.7       331.6       331.6       331.5       331.4       331.3       331.1       330.9       330.7    
        330.5       330.1       329.8       329.9       330.1       330.2       330.2       330.2       330.2       330.2    
        330.2       330.1       330.1       330.1       330.1    
  13    331.7       331.6       331.6       331.6       331.5       331.4       331.3       331.1       330.9       330.7    
        330.4       329.9       329.0       329.7       330.0       330.1       330.2       330.2       330.2       330.2    
        330.2       330.1       330.1       330.1       330.1    
  14    331.7       331.7       331.6       331.6       331.5       331.4       331.3       331.1       330.9       330.7    
        330.5       330.1       329.8       329.9       330.1       330.2       330.2       330.2       330.2       330.2    
        330.2       330.1       330.1       330.1       330.1    
  15    331.7       331.7       331.6       331.6       331.5       331.4       331.3       331.2       331.0       330.8    
        330.6       330.4       330.2       330.2       330.2       330.3       330.3       330.3       330.2       330.2    
        330.2       330.1       330.1       330.1       330.1    
  16    331.7       331.7       331.6       331.6       331.5       331.4       331.3       331.2       331.1       330.9    
        330.7       330.6       330.4       330.4       330.4       330.3       330.3       330.3       330.3       330.2    
        330.2       330.2       330.1       330.1       330.1    
  17    331.7       331.7       331.6       331.6       331.5       331.4       331.4       331.2       331.1       331.0    
        330.8       330.7       330.6       330.5       330.5       330.4       330.4       330.4       330.3       330.3    
        330.2       330.2       330.1       330.1       330.1    
  18    331.7       331.7       331.7       331.6       331.6       331.5       331.4       331.3       331.2       331.1    
        330.9       330.8       330.7       330.6       330.6       330.5       330.5       330.4       330.3       330.3    
        330.2       330.2       330.1       330.1       330.1    
  19    331.7       331.7       331.7       331.6       331.6       331.5       331.4       331.3       331.2       331.1    
        331.0       330.9       330.8       330.7       330.6       330.6       330.5       330.4       330.4       330.3    
        330.3       330.2       330.2       330.1       330.1    
  20    331.7       331.7       331.7       331.6       331.6       331.5       331.5       331.4       331.3       331.2    
        331.1       331.0       330.9       330.8       330.7       330.6       330.6       330.5       330.4       330.3    
        330.3       330.2       330.2       330.1       330.1    
  21    331.7       331.7       331.7       331.7       331.6       331.6       331.5       331.4       331.3       331.2    
        331.1       331.0       330.9       330.8       330.8       330.7       330.6       330.5       330.4       330.4    
        330.3       330.2       330.2       330.2       330.1    
  22    331.8       331.7       331.7       331.7       331.6       331.6       331.5       331.4       331.3       331.3    
        331.2       331.1       331.0       330.9       330.8       330.7       330.6       330.5       330.5       330.4    
        330.3       330.3       330.2       330.2       330.1    
  23    331.8       331.7       331.7       331.7       331.6       331.6       331.5       331.4       331.4       331.3    
        331.2       331.1       331.0       330.9       330.8       330.7       330.6       330.6       330.5       330.4    
        330.3       330.3       330.2       330.2       330.2    
  24    331.8       331.8       331.7       331.7       331.6       331.6       331.5       331.5       331.4       331.3    
        331.2       331.1       331.0       330.9       330.8       330.7       330.7       330.6       330.5       330.4    
        330.3       330.3       330.2       330.2       330.2    
  25    331.8       331.8       331.7       331.7       331.7       331.6       331.5       331.5       331.4       331.3    
        331.2       331.1       331.0       330.9       330.8       330.8       330.7       330.6       330.5       330.4    
        330.3       330.3       330.2       330.2       330.2    

 HEAD WILL BE SAVED ON UNIT   50 AT END OF TIME STEP    1, STRESS PERIOD    1
1
  VOLUMETRIC BUDGET FOR ENTIRE MODEL AT END OF TIME STEP    1, STRESS PERIOD   1
  ------------------------------------------------------------------------------

     CUMULATIVE VOLUMES      L**3       RATES FOR THIS TIME STEP      L**3/T
     ------------------                 ------------------------

           IN:                                      IN:
           ---                                      ---
             STORAGE =           0.0000               STORAGE =           0.0000
       CONSTANT HEAD =           0.0000         CONSTANT HEAD =           0.0000
       RIVER LEAKAGE =           0.0000         RIVER LEAKAGE =           0.0000
            RECHARGE = 99999997952.0000              RECHARGE =      500000.0000
                MNW2 =           0.0000                  MNW2 =           0.0000

            TOTAL IN = 99999997952.0000              TOTAL IN =      500000.0000

          OUT:                                     OUT:
          ----                                     ----
             STORAGE =           0.0000               STORAGE =           0.0000
       CONSTANT HEAD =           0.0000         CONSTANT HEAD =           0.0000
       RIVER LEAKAGE = 69998772224.0000         RIVER LEAKAGE =      349993.8438
            RECHARGE =           0.0000              RECHARGE =           0.0000
                MNW2 = 30000001024.0000                  MNW2 =      150000.0000

           TOTAL OUT = 99998777344.0000             TOTAL OUT =      499993.8438

            IN - OUT =     1220608.0000              IN - OUT =           6.1562

 PERCENT DISCREPANCY =           0.00     PERCENT DISCREPANCY =           0.00






         TIME SUMMARY AT END OF TIME STEP    1 IN STRESS PERIOD    1
                    SECONDS     MINUTES      HOURS       DAYS        YEARS
                    -----------------------------------------------------------
   TIME STEP LENGTH 1.72800E+10 2.88000E+08 4.80000E+06 2.00000E+05  547.57    
 STRESS PERIOD TIME 1.72800E+10 2.88000E+08 4.80000E+06 2.00000E+05  547.57    
         TOTAL TIME 1.72800E+10 2.88000E+08 4.80000E+06 2.00000E+05  547.57    
1
1
                            STRESS PERIOD NO.    2, LENGTH =   10000.00    
                            -----------------------------------------------

                              NUMBER OF TIME STEPS =    10

                               MULTIPLIER FOR DELT =     1.500

                            INITIAL TIME STEP SIZE =   88.23783    

 REACH NO.  LAYER   ROW   COL     STAGE      CONDUCTANCE     BOTTOM EL.         IFACE           
 -----------------------------------------------------------------------------------------------
      1      1      1     25       320.0          0.1000E+06       315.0           6.000    
      2      1      2     25       320.0          0.1000E+06       315.0           6.000    
      3      1      3     25       320.0          0.1000E+06       315.0           6.000    
      4      1      4     25       320.0          0.1000E+06       315.0           6.000    
      5      1      5     25       320.0          0.1000E+06       315.0           6.000    
      6      1      6     25       320.0          0.1000E+06       315.0           6.000    
      7      1      7     25       320.0          0.1000E+06       315.0           6.000    
      8      1      8     25       320.0          0.1000E+06       315.0           6.000    
      9      1      9     25       320.0          0.1000E+06       315.0           6.000    
     10      1     10     25       320.0          0.1000E+06       315.0           6.000    
     11      1     11     25       320.0          0.1000E+06       315.0           6.000    
     12      1     12     25       320.0          0.1000E+06       315.0           6.000    
     13      1     13     25       320.0          0.1000E+06       315.0           6.000    
     14      1     14     25       320.0          0.1000E+06       315.0           6.000    
     15      1     15     25       320.0          0.1000E+06       315.0           6.000    
     16      1     16     25       320.0          0.1000E+06       315.0           6.000    
     17      1     17     25       320.0          0.1000E+06       315.0           6.000    
     18      1     18     25       320.0          0.1000E+06       315.0           6.000    
     19      1     19     25       320.0          0.1000E+06       315.0           6.000    
     20      1     20     25       320.0          0.1000E+06       315.0           6.000    
     21      1     21     25       320.0          0.1000E+06       315.0           6.000    
     22      1     22     25       320.0          0.1000E+06       315.0           6.000    
     23      1     23     25       320.0          0.1000E+06       315.0           6.000    
     24      1     24     25       320.0          0.1000E+06       315.0           6.000    
     25      1     25     25       320.0          0.1000E+06       315.0           6.000    

     25 RIVER REACHES

                 RECHARGE =  5.000000E-03
 

 REUSING MNW2 INFORMATION FROM LAST STRESS PERIOD
 
 SOLVING FOR HEAD 


     1 CALLS TO PCG ROUTINE FOR TIME STEP   1 IN STRESS PERIOD    2
     1 TOTAL ITERATIONS

 MAXIMUM HEAD CHANGE FOR EACH ITERATION (1 INDICATES THE FIRST INNER ITERATION):

    HEAD CHANGE    HEAD CHANGE    HEAD CHANGE    HEAD CHANGE    HEAD CHANGE 
   LAYER,ROW,COL  LAYER,ROW,COL  LAYER,ROW,COL  LAYER,ROW,COL  LAYER,ROW,COL
 ---------------------------------------------------------------------------
  1 -0.2602E-04
   (  3, 13, 24)

 MAXIMUM RESIDUAL FOR EACH ITERATION (1 INDICATES THE FIRST INNER ITERATION):

    RESIDUAL       RESIDUAL       RESIDUAL       RESIDUAL       RESIDUAL    
   LAYER,ROW,COL  LAYER,ROW,COL  LAYER,ROW,COL  LAYER,ROW,COL  LAYER,ROW,COL
 ---------------------------------------------------------------------------
  1 -0.7226    
   (  4, 13, 13)



 OUTPUT CONTROL FOR STRESS PERIOD    2   TIME STEP    1
    SAVE BUDGET
    PRINT HEAD FOR ALL LAYERS
    SAVE HEAD FOR ALL LAYERS
 UBDSV1 SAVING "         STORAGE" ON UNIT  53 AT TIME STEP  1, STRESS PERIOD   2
 UBDSV2 SAVING "   CONSTANT HEAD" ON UNIT  53 AT TIME STEP  1, STRESS PERIOD   2
 UBDSV1 SAVING "FLOW RIGHT FACE " ON UNIT  53 AT TIME STEP  1, STRESS PERIOD   2
 UBDSV1 SAVING "FLOW FRONT FACE " ON UNIT  53 AT TIME STEP  1, STRESS PERIOD   2
 UBDSV1 SAVING "FLOW LOWER FACE " ON UNIT  53 AT TIME STEP  1, STRESS PERIOD   2
 UBDSV4 SAVING "   RIVER LEAKAGE" ON UNIT  53 AT TIME STEP  1, STRESS PERIOD   2
 UBDSV3 SAVING "        RECHARGE" ON UNIT  53 AT TIME STEP  1, STRESS PERIOD   2
1
              HEAD IN LAYER   1 AT END OF TIME STEP   1 IN STRESS PERIOD    2
  ---------------------------------------------------------------------------

            1           2           3           4           5           6           7           8           9          10
           11          12          13          14          15          16          17          18          19          20
           21          22          23          24          25
 ........................................................................................................................
   1    339.1       339.1       339.0       338.9       338.8       338.6       338.4       338.1       337.8       337.4    
        337.0       336.6       336.0       335.4       334.7       334.0       333.1       332.1       331.0       329.7    
        328.3       326.7       324.8       322.7       320.1    
   2    339.1       339.1       339.0       338.9       338.8       338.6       338.4       338.1       337.8       337.4    
        337.0       336.5       336.0       335.4       334.7       334.0       333.1       332.1       331.0       329.7    
        328.3       326.7       324.8       322.7       320.1    
   3    339.1       339.1       339.0       338.9       338.8       338.6       338.4       338.1       337.8       337.4    
        337.0       336.5       336.0       335.4       334.7       334.0       333.1       332.1       331.0       329.7    
        328.3       326.7       324.8       322.7       320.1    
   4    339.1       339.1       339.0       338.9       338.8       338.6       338.4       338.1       337.8       337.4    
        337.0       336.5       336.0       335.4       334.7       334.0       333.1       332.1       331.0       329.7    
        328.3       326.7       324.8       322.7       320.1    
   5    339.1       339.1       339.0       338.9       338.8       338.6       338.3       338.1       337.8       337.4    
        337.0       336.5       336.0       335.4       334.7       333.9       333.1       332.1       331.0       329.7    
        328.3       326.7       324.8       322.7       320.1    
   6    339.1       339.1       339.0       338.9       338.8       338.6       338.3       338.1       337.8       337.4    
        337.0       336.5       336.0       335.4       334.7       333.9       333.1       332.1       331.0       329.7    
        328.3       326.7       324.8       322.7       320.1    
   7    339.1       339.1       339.0       338.9       338.7       338.6       338.3       338.1       337.8       337.4    
        337.0       336.5       336.0       335.4       334.7       333.9       333.1       332.1       331.0       329.7    
        328.3       326.7       324.8       322.7       320.1    
   8    339.1       339.1       339.0       338.9       338.7       338.6       338.3       338.1       337.7       337.4    
        337.0       336.5       336.0       335.4       334.7       333.9       333.1       332.1       331.0       329.7    
        328.3       326.7       324.8       322.7       320.1    
   9    339.1       339.1       339.0       338.9       338.7       338.5       338.3       338.0       337.7       337.4    
        337.0       336.5       335.9       335.3       334.7       333.9       333.0       332.1       331.0       329.7    
        328.3       326.7       324.8       322.7       320.1    
  10    339.1       339.1       339.0       338.9       338.7       338.5       338.3       338.0       337.7       337.4    
        336.9       336.5       335.9       335.3       334.7       333.9       333.0       332.1       331.0       329.7    
        328.3       326.7       324.8       322.7       320.1    
  11    339.1       339.1       339.0       338.9       338.7       338.5       338.3       338.0       337.7       337.3    
        336.9       336.5       335.9       335.3       334.6       333.9       333.0       332.1       331.0       329.7    
        328.3       326.7       324.8       322.7       320.1    
  12    339.1       339.1       339.0       338.9       338.7       338.5       338.3       338.0       337.7       337.3    
        336.9       336.4       335.9       335.3       334.6       333.9       333.0       332.0       331.0       329.7    
        328.3       326.7       324.8       322.7       320.1    
  13    339.1       339.1       339.0       338.9       338.7       338.5       338.3       338.0       337.7       337.3    
        336.9       336.4       335.9       335.3       334.6       333.9       333.0       332.0       330.9       329.7    
        328.3       326.7       324.8       322.7       320.1    
  14    339.1       339.1       339.0       338.9       338.7       338.5       338.3       338.0       337.7       337.3    
        336.9       336.4       335.9       335.3       334.6       333.9       333.0       332.0       331.0       329.7    
        328.3       326.7       324.8       322.7       320.1    
  15    339.1       339.1       339.0       338.9       338.7       338.5       338.3       338.0       337.7       337.3    
        336.9       336.5       335.9       335.3       334.6       333.9       333.0       332.1       331.0       329.7    
        328.3       326.7       324.8       322.7       320.1    
  16    339.1       339.1       339.0       338.9       338.7       338.5       338.3       338.0       337.7       337.4    
        336.9       336.5       335.9       335.3       334.7       333.9       333.0       332.1       331.0       329.7    
        328.3       326.7       324.8       322.7       320.1    
  17    339.1       339.1       339.0       338.9       338.7       338.5       338.3       338.0       337.7       337.4    
        337.0       336.5       335.9       335.3       334.7       333.9       333.0       332.1       331.0       329.7    
        328.3       326.7       324.8       322.7       320.1    
  18    339.1       339.1       339.0       338.9       338.7       338.6       338.3       338.1       337.7       337.4    
        337.0       336.5       336.0       335.4       334.7       333.9       333.1       332.1       331.0       329.7    
        328.3       326.7       324.8       322.7       320.1    
  19    339.1       339.1       339.0       338.9       338.7       338.6       338.3       338.1       337.8       337.4    
        337.0       336.5       336.0       335.4       334.7       333.9       333.1       332.1       331.0       329.7    
        328.3       326.7       324.8       322.7       320.1    
  20    339.1       339.1       339.0       338.9       338.8       338.6       338.3       338.1       337.8       337.4    
        337.0       336.5       336.0       335.4       334.7       333.9       333.1       332.1       331.0       329.7    
        328.3       326.7       324.8       322.7       320.1    
  21    339.1       339.1       339.0       338.9       338.8       338.6       338.3       338.1       337.8       337.4    
        337.0       336.5       336.0       335.4       334.7       333.9       333.1       332.1       331.0       329.7    
        328.3       326.7       324.8       322.7       320.1    
  22    339.1       339.1       339.0       338.9       338.8       338.6       338.4       338.1       337.8       337.4    
        337.0       336.5       336.0       335.4       334.7       334.0       333.1       332.1       331.0       329.7    
        328.3       326.7       324.8       322.7       320.1    
  23    339.1       339.1       339.0       338.9       338.8       338.6       338.4       338.1       337.8       337.4    
        337.0       336.5       336.0       335.4       334.7       334.0       333.1       332.1       331.0       329.7    
        328.3       326.7       324.8       322.7       320.1    
  24    339.1       339.1       339.0       338.9       338.8       338.6       338.4       338.1       337.8       337.4    
        337.0       336.5       336.0       335.4       334.7       334.0       333.1       332.1       331.0       329.7    
        328.3       326.7       324.8       322.7       320.1    
  25    339.1       339.1       339.0       338.9       338.8       338.6       338.4       338.1       337.8       337.4    
        337.0       336.6       336.0       335.4       334.7       334.0       333.1       332.1       331.0       329.7    
        328.3       326.7       324.8       322.7       320.1    
1
              HEAD IN LAYER   2 AT END OF TIME STEP   1 IN STRESS PERIOD    2
  ---------------------------------------------------------------------------

            1           2           3           4           5           6           7           8           9          10
           11          12          13          14          15          16          17          18          19          20
           21          22          23          24          25
 ........................................................................................................................
   1    339.1       339.1       339.0       338.9       338.7       338.6       338.3       338.1       337.8       337.4    
        337.0       336.5       336.0       335.4       334.7       333.9       333.1       332.1       331.0       329.7    
        328.3       326.7       324.8       322.7       320.3    
   2    339.1       339.1       339.0       338.9       338.7       338.6       338.3       338.1       337.8       337.4    
        337.0       336.5       336.0       335.4       334.7       333.9       333.1       332.1       331.0       329.7    
        328.3       326.7       324.8       322.7       320.3    
   3    339.1       339.1       339.0       338.9       338.7       338.6       338.3       338.1       337.8       337.4    
        337.0       336.5       336.0       335.4       334.7       333.9       333.1       332.1       331.0       329.7    
        328.3       326.7       324.8       322.7       320.3    
   4    339.1       339.1       339.0       338.9       338.7       338.6       338.3       338.1       337.8       337.4    
        337.0       336.5       336.0       335.4       334.7       333.9       333.1       332.1       331.0       329.7    
        328.3       326.7       324.8       322.7       320.3    
   5    339.1       339.1       339.0       338.9       338.7       338.5       338.3       338.1       337.7       337.4    
        337.0       336.5       336.0       335.4       334.7       333.9       333.1       332.1       331.0       329.7    
        328.3       326.7       324.8       322.7       320.3    
   6    339.1       339.1       339.0       338.9       338.7       338.5       338.3       338.1       337.7       337.4    
        337.0       336.5       336.0       335.4       334.7       333.9       333.1       332.1       331.0       329.7    
        328.3       326.7       324.8       322.7       320.3    
   7    339.1       339.0       339.0       338.9       338.7       338.5       338.3       338.0       337.7       337.4    
        337.0       336.5       336.0       335.4       334.7       333.9       333.0       332.1       331.0       329.7    
        328.3       326.7       324.8       322.7       320.3    
   8    339.1       339.0       339.0       338.9       338.7       338.5       338.3       338.0       337.7       337.4    
        336.9       336.5       335.9       335.3       334.7       333.9       333.0       332.1       331.0       329.7    
        328.3       326.7       324.8       322.7       320.3    
   9    339.1       339.0       339.0       338.9       338.7       338.5       338.3       338.0       337.7       337.3    
        336.9       336.5       335.9       335.3       334.6       333.9       333.0       332.1       331.0       329.7    
        328.3       326.7       324.8       322.7       320.3    
  10    339.1       339.0       339.0       338.9       338.7       338.5       338.3       338.0       337.7       337.3    
        336.9       336.4       335.9       335.3       334.6       333.9       333.0       332.0       330.9       329.7    
        328.3       326.7       324.8       322.7       320.3    
  11    339.1       339.0       339.0       338.8       338.7       338.5       338.3       338.0       337.7       337.3    
        336.9       336.4       335.9       335.3       334.6       333.9       333.0       332.0       330.9       329.7    
        328.3       326.7       324.8       322.7       320.3    
  12    339.1       339.0       339.0       338.8       338.7       338.5       338.3       338.0       337.7       337.3    
        336.9       336.4       335.9       335.3       334.6       333.9       333.0       332.0       330.9       329.7    
        328.3       326.7       324.8       322.7       320.3    
  13    339.1       339.0       339.0       338.8       338.7       338.5       338.3       338.0       337.7       337.3    
        336.9       336.4       335.9       335.3       334.6       333.9       333.0       332.0       330.9       329.7    
        328.3       326.7       324.8       322.7       320.3    
  14    339.1       339.0       339.0       338.8       338.7       338.5       338.3       338.0       337.7       337.3    
        336.9       336.4       335.9       335.3       334.6       333.9       333.0       332.0       330.9       329.7    
        328.3       326.7       324.8       322.7       320.3    
  15    339.1       339.0       339.0       338.8       338.7       338.5       338.3       338.0       337.7       337.3    
        336.9       336.4       335.9       335.3       334.6       333.9       333.0       332.0       330.9       329.7    
        328.3       326.7       324.8       322.7       320.3    
  16    339.1       339.0       339.0       338.9       338.7       338.5       338.3       338.0       337.7       337.3    
        336.9       336.4       335.9       335.3       334.6       333.9       333.0       332.0       330.9       329.7    
        328.3       326.7       324.8       322.7       320.3    
  17    339.1       339.0       339.0       338.9       338.7       338.5       338.3       338.0       337.7       337.3    
        336.9       336.5       335.9       335.3       334.6       333.9       333.0       332.1       331.0       329.7    
        328.3       326.7       324.8       322.7       320.3    
  18    339.1       339.0       339.0       338.9       338.7       338.5       338.3       338.0       337.7       337.4    
        336.9       336.5       335.9       335.3       334.7       333.9       333.0       332.1       331.0       329.7    
        328.3       326.7       324.8       322.7       320.3    
  19    339.1       339.0       339.0       338.9       338.7       338.5       338.3       338.0       337.7       337.4    
        337.0       336.5       336.0       335.4       334.7       333.9       333.0       332.1       331.0       329.7    
        328.3       326.7       324.8       322.7       320.3    
  20    339.1       339.1       339.0       338.9       338.7       338.5       338.3       338.1       337.7       337.4    
        337.0       336.5       336.0       335.4       334.7       333.9       333.1       332.1       331.0       329.7    
        328.3       326.7       324.8       322.7       320.3    
  21    339.1       339.1       339.0       338.9       338.7       338.5       338.3       338.1       337.7       337.4    
        337.0       336.5       336.0       335.4       334.7       333.9       333.1       332.1       331.0       329.7    
        328.3       326.7       324.8       322.7       320.3    
  22    339.1       339.1       339.0       338.9       338.7       338.6       338.3       338.1       337.8       337.4    
        337.0       336.5       336.0       335.4       334.7       333.9       333.1       332.1       331.0       329.7    
        328.3       326.7       324.8       322.7       320.3    
  23    339.1       339.1       339.0       338.9       338.7       338.6       338.3       338.1       337.8       337.4    
        337.0       336.5       336.0       335.4       334.7       333.9       333.1       332.1       331.0       329.7    
        328.3       326.7       324.8       322.7       320.3    
  24    339.1       339.1       339.0       338.9       338.7       338.6       338.3       338.1       337.8       337.4    
        337.0       336.5       336.0       335.4       334.7       333.9       333.1       332.1       331.0       329.7    
        328.3       326.7       324.8       322.7       320.3    
  25    339.1       339.1       339.0       338.9       338.7       338.6       338.3       338.1       337.8       337.4    
        337.0       336.5       336.0       335.4       334.7       333.9       333.1       332.1       331.0       329.7    
        328.3       326.7       324.8       322.7       320.3    
1
              HEAD IN LAYER   3 AT END OF TIME STEP   1 IN STRESS PERIOD    2
  ---------------------------------------------------------------------------

            1           2           3           4           5           6           7           8           9          10
           11          12          13          14          15          16          17          18          19          20
           21          22          23          24          25
 ........................................................................................................................
   1    335.4       335.4       335.4       335.3       335.2       335.1       334.9       334.8       334.6       334.4    
        334.1       333.8       333.5       333.2       332.8       332.4       331.9       331.3       330.7       330.1    
        329.3       328.5       327.5       326.4       325.3    
   2    335.4       335.4       335.4       335.3       335.2       335.1       334.9       334.8       334.6       334.4    
        334.1       333.8       333.5       333.2       332.8       332.3       331.9       331.3       330.7       330.1    
        329.3       328.5       327.5       326.4       325.2    
   3    335.4       335.4       335.4       335.3       335.2       335.1       334.9       334.8       334.6       334.3    
        334.1       333.8       333.5       333.2       332.8       332.3       331.9       331.3       330.7       330.1    
        329.3       328.5       327.5       326.4       325.2    
   4    335.4       335.4       335.4       335.3       335.2       335.1       334.9       334.7       334.6       334.3    
        334.1       333.8       333.5       333.1       332.7       332.3       331.8       331.3       330.7       330.1    
        329.3       328.5       327.5       326.4       325.2    
   5    335.4       335.4       335.3       335.3       335.2       335.1       334.9       334.7       334.5       334.3    
        334.1       333.8       333.5       333.1       332.7       332.3       331.8       331.3       330.7       330.0    
        329.3       328.5       327.5       326.4       325.2    
   6    335.4       335.4       335.3       335.3       335.2       335.0       334.9       334.7       334.5       334.3    
        334.0       333.7       333.4       333.1       332.7       332.3       331.8       331.3       330.7       330.0    
        329.3       328.4       327.5       326.4       325.2    
   7    335.4       335.4       335.3       335.3       335.2       335.0       334.9       334.7       334.5       334.2    
        334.0       333.7       333.4       333.0       332.7       332.2       331.8       331.3       330.7       330.0    
        329.3       328.4       327.5       326.4       325.2    
   8    335.4       335.4       335.3       335.2       335.1       335.0       334.8       334.7       334.5       334.2    
        333.9       333.6       333.3       333.0       332.6       332.2       331.7       331.2       330.7       330.0    
        329.3       328.4       327.5       326.4       325.2    
   9    335.4       335.4       335.3       335.2       335.1       335.0       334.8       334.6       334.4       334.2    
        333.9       333.6       333.3       332.9       332.6       332.2       331.7       331.2       330.6       330.0    
        329.2       328.4       327.5       326.4       325.2    
  10    335.4       335.4       335.3       335.2       335.1       335.0       334.8       334.6       334.4       334.1    
        333.8       333.5       333.2       332.8       332.5       332.1       331.7       331.2       330.6       330.0    
        329.2       328.4       327.5       326.4       325.2    
  11    335.4       335.3       335.3       335.2       335.1       335.0       334.8       334.6       334.3       334.1    
        333.8       333.4       333.0       332.7       332.4       332.1       331.6       331.2       330.6       330.0    
        329.2       328.4       327.5       326.4       325.2    
  12    335.4       335.3       335.3       335.2       335.1       335.0       334.8       334.6       334.3       334.0    
        333.7       333.3       332.8       332.6       332.4       332.0       331.6       331.1       330.6       329.9    
        329.2       328.4       327.5       326.4       325.2    
  13    335.4       335.3       335.3       335.2       335.1       335.0       334.8       334.6       334.3       334.0    
        333.6       333.1       332.3       332.5       332.3       332.0       331.6       331.1       330.6       329.9    
        329.2       328.4       327.5       326.4       325.2    
  14    335.4       335.3       335.3       335.2       335.1       335.0       334.8       334.6       334.3       334.0    
        333.7       333.3       332.8       332.6       332.4       332.0       331.6       331.1       330.6       329.9    
        329.2       328.4       327.5       326.4       325.2    
  15    335.4       335.3       335.3       335.2       335.1       335.0       334.8       334.6       334.3       334.1    
        333.8       333.4       333.0       332.7       332.4       332.1       331.6       331.2       330.6       330.0    
        329.2       328.4       327.5       326.4       325.2    
  16    335.4       335.4       335.3       335.2       335.1       335.0       334.8       334.6       334.4       334.1    
        333.8       333.5       333.2       332.8       332.5       332.1       331.7       331.2       330.6       330.0    
        329.2       328.4       327.5       326.4       325.2    
  17    335.4       335.4       335.3       335.2       335.1       335.0       334.8       334.6       334.4       334.2    
        333.9       333.6       333.3       332.9       332.6       332.2       331.7       331.2       330.6       330.0    
        329.2       328.4       327.5       326.4       325.2    
  18    335.4       335.4       335.3       335.2       335.1       335.0       334.8       334.7       334.5       334.2    
        333.9       333.6       333.3       333.0       332.6       332.2       331.7       331.2       330.7       330.0    
        329.3       328.4       327.5       326.4       325.2    
  19    335.4       335.4       335.3       335.3       335.2       335.0       334.9       334.7       334.5       334.2    
        334.0       333.7       333.4       333.0       332.7       332.2       331.8       331.3       330.7       330.0    
        329.3       328.4       327.5       326.4       325.2    
  20    335.4       335.4       335.3       335.3       335.2       335.0       334.9       334.7       334.5       334.3    
        334.0       333.7       333.4       333.1       332.7       332.3       331.8       331.3       330.7       330.0    
        329.3       328.4       327.5       326.4       325.2    
  21    335.4       335.4       335.3       335.3       335.2       335.1       334.9       334.7       334.5       334.3    
        334.1       333.8       333.5       333.1       332.7       332.3       331.8       331.3       330.7       330.0    
        329.3       328.5       327.5       326.4       325.2    
  22    335.4       335.4       335.4       335.3       335.2       335.1       334.9       334.7       334.6       334.3    
        334.1       333.8       333.5       333.1       332.7       332.3       331.8       331.3       330.7       330.1    
        329.3       328.5       327.5       326.4       325.2    
  23    335.4       335.4       335.4       335.3       335.2       335.1       334.9       334.8       334.6       334.3    
        334.1       333.8       333.5       333.2       332.8       332.3       331.9       331.3       330.7       330.1    
        329.3       328.5       327.5       326.4       325.2    
  24    335.4       335.4       335.4       335.3       335.2       335.1       334.9       334.8       334.6       334.4    
        334.1       333.8       333.5       333.2       332.8       332.3       331.9       331.3       330.7       330.1    
        329.3       328.5       327.5       326.4       325.2    
  25    335.4       335.4       335.4       335.3       335.2       335.1       334.9       334.8       334.6       334.4    
        334.1       333.8       333.5       333.2       332.8       332.4       331.9       331.3       330.7       330.1    
        329.3       328.5       327.5       326.4       325.3    
1
              HEAD IN LAYER   4 AT END OF TIME STEP   1 IN STRESS PERIOD    2
  ---------------------------------------------------------------------------

            1           2           3           4           5           6           7           8           9          10
           11          12          13          14          15          16          17          18          19          20
           21          22          23          24          25
 ........................................................................................................................
   1    331.8       331.8       331.7       331.7       331.7       331.6       331.5       331.5       331.4       331.3    
        331.2       331.1       331.0       330.9       330.8       330.8       330.7       330.6       330.5       330.4    
        330.3       330.3       330.2       330.2       330.2    
   2    331.8       331.8       331.7       331.7       331.7       331.6       331.5       331.5       331.4       331.3    
        331.2       331.1       331.0       330.9       330.8       330.7       330.7       330.6       330.5       330.4    
        330.3       330.3       330.2       330.2       330.1    
   3    331.8       331.8       331.7       331.7       331.6       331.6       331.5       331.5       331.4       331.3    
        331.2       331.1       331.0       330.9       330.8       330.7       330.6       330.6       330.5       330.4    
        330.3       330.3       330.2       330.2       330.1    
   4    331.8       331.7       331.7       331.7       331.6       331.6       331.5       331.4       331.3       331.3    
        331.2       331.1       331.0       330.9       330.8       330.7       330.6       330.5       330.5       330.4    
        330.3       330.3       330.2       330.2       330.1    
   5    331.8       331.7       331.7       331.7       331.6       331.6       331.5       331.4       331.3       331.2    
        331.1       331.0       330.9       330.8       330.8       330.7       330.6       330.5       330.4       330.4    
        330.3       330.2       330.2       330.1       330.1    
   6    331.7       331.7       331.7       331.7       331.6       331.5       331.5       331.4       331.3       331.2    
        331.1       331.0       330.9       330.8       330.7       330.6       330.6       330.5       330.4       330.3    
        330.3       330.2       330.2       330.1       330.1    
   7    331.7       331.7       331.7       331.6       331.6       331.5       331.4       331.3       331.2       331.1    
        331.0       330.9       330.8       330.7       330.6       330.6       330.5       330.4       330.4       330.3    
        330.3       330.2       330.2       330.1       330.1    
   8    331.7       331.7       331.7       331.6       331.6       331.5       331.4       331.3       331.2       331.1    
        330.9       330.8       330.7       330.6       330.6       330.5       330.5       330.4       330.3       330.3    
        330.2       330.2       330.1       330.1       330.1    
   9    331.7       331.7       331.7       331.6       331.5       331.5       331.4       331.2       331.1       331.0    
        330.8       330.7       330.6       330.5       330.5       330.4       330.4       330.4       330.3       330.3    
        330.2       330.2       330.1       330.1       330.1    
  10    331.7       331.7       331.6       331.6       331.5       331.4       331.3       331.2       331.1       330.9    
        330.7       330.6       330.4       330.4       330.4       330.3       330.3       330.3       330.3       330.2    
        330.2       330.2       330.1       330.1       330.1    
  11    331.7       331.7       331.6       331.6       331.5       331.4       331.3       331.2       331.0       330.8    
        330.6       330.4       330.2       330.2       330.2       330.3       330.3       330.3       330.2       330.2    
        330.2       330.1       330.1       330.1       330.1    
  12    331.7       331.7       331.6       331.6       331.5       331.4       331.3       331.1       331.0       330.7    
        330.5       330.1       329.8       329.9       330.1       330.2       330.2       330.2       330.2       330.2    
        330.2       330.1       330.1       330.1       330.1    
  13    331.7       331.7       331.6       331.6       331.5       331.4       331.3       331.1       330.9       330.7    
        330.4       329.8       328.7       329.7       330.0       330.1       330.2       330.2       330.2       330.2    
        330.2       330.1       330.1       330.1       330.1    
  14    331.7       331.7       331.6       331.6       331.5       331.4       331.3       331.1       331.0       330.7    
        330.5       330.1       329.8       329.9       330.1       330.2       330.2       330.2       330.2       330.2    
        330.2       330.1       330.1       330.1       330.1    
  15    331.7       331.7       331.6       331.6       331.5       331.4       331.3       331.2       331.0       330.8    
        330.6       330.4       330.2       330.2       330.2       330.3       330.3       330.3       330.2       330.2    
        330.2       330.1       330.1       330.1       330.1    
  16    331.7       331.7       331.6       331.6       331.5       331.4       331.3       331.2       331.1       330.9    
        330.7       330.6       330.4       330.4       330.4       330.3       330.3       330.3       330.3       330.2    
        330.2       330.2       330.1       330.1       330.1    
  17    331.7       331.7       331.7       331.6       331.5       331.5       331.4       331.2       331.1       331.0    
        330.8       330.7       330.6       330.5       330.5       330.4       330.4       330.4       330.3       330.3    
        330.2       330.2       330.1       330.1       330.1    
  18    331.7       331.7       331.7       331.6       331.6       331.5       331.4       331.3       331.2       331.1    
        330.9       330.8       330.7       330.6       330.6       330.5       330.5       330.4       330.3       330.3    
        330.2       330.2       330.1       330.1       330.1    
  19    331.7       331.7       331.7       331.6       331.6       331.5       331.4       331.3       331.2       331.1    
        331.0       330.9       330.8       330.7       330.6       330.6       330.5       330.4       330.4       330.3    
        330.3       330.2       330.2       330.1       330.1    
  20    331.7       331.7       331.7       331.7       331.6       331.5       331.5       331.4       331.3       331.2    
        331.1       331.0       330.9       330.8       330.7       330.6       330.6       330.5       330.4       330.3    
        330.3       330.2       330.2       330.1       330.1    
  21    331.8       331.7       331.7       331.7       331.6       331.6       331.5       331.4       331.3       331.2    
        331.1       331.0       330.9       330.8       330.8       330.7       330.6       330.5       330.4       330.4    
        330.3       330.2       330.2       330.1       330.1    
  22    331.8       331.7       331.7       331.7       331.6       331.6       331.5       331.4       331.3       331.3    
        331.2       331.1       331.0       330.9       330.8       330.7       330.6       330.5       330.5       330.4    
        330.3       330.3       330.2       330.2       330.1    
  23    331.8       331.8       331.7       331.7       331.6       331.6       331.5       331.5       331.4       331.3    
        331.2       331.1       331.0       330.9       330.8       330.7       330.6       330.6       330.5       330.4    
        330.3       330.3       330.2       330.2       330.1    
  24    331.8       331.8       331.7       331.7       331.7       331.6       331.5       331.5       331.4       331.3    
        331.2       331.1       331.0       330.9       330.8       330.7       330.7       330.6       330.5       330.4    
        330.3       330.3       330.2       330.2       330.1    
  25    331.8       331.8       331.7       331.7       331.7       331.6       331.5       331.5       331.4       331.3    
        331.2       331.1       331.0       330.9       330.8       330.8       330.7       330.6       330.5       330.4    
        330.3       330.3       330.2       330.2       330.2    
1
              HEAD IN LAYER   5 AT END OF TIME STEP   1 IN STRESS PERIOD    2
  ---------------------------------------------------------------------------

            1           2           3           4           5           6           7           8           9          10
           11          12          13          14          15          16          17          18          19          20
           21          22          23          24          25
 ........................................................................................................................
   1    331.8       331.8       331.7       331.7       331.7       331.6       331.5       331.5       331.4       331.3    
        331.2       331.1       331.0       330.9       330.8       330.8       330.7       330.6       330.5       330.4    
        330.3       330.3       330.2       330.2       330.2    
   2    331.8       331.8       331.7       331.7       331.6       331.6       331.5       331.5       331.4       331.3    
        331.2       331.1       331.0       330.9       330.8       330.7       330.7       330.6       330.5       330.4    
        330.3       330.3       330.2       330.2       330.2    
   3    331.8       331.7       331.7       331.7       331.6       331.6       331.5       331.4       331.4       331.3    
        331.2       331.1       331.0       330.9       330.8       330.7       330.6       330.6       330.5       330.4    
        330.3       330.3       330.2       330.2       330.2    
   4    331.8       331.7       331.7       331.7       331.6       331.6       331.5       331.4       331.3       331.3    
        331.2       331.1       331.0       330.9       330.8       330.7       330.6       330.5       330.5       330.4    
        330.3       330.3       330.2       330.2       330.1    
   5    331.7       331.7       331.7       331.7       331.6       331.6       331.5       331.4       331.3       331.2    
        331.1       331.0       330.9       330.8       330.8       330.7       330.6       330.5       330.4       330.4    
        330.3       330.2       330.2       330.2       330.1    
   6    331.7       331.7       331.7       331.6       331.6       331.5       331.5       331.4       331.3       331.2    
        331.1       331.0       330.9       330.8       330.7       330.6       330.6       330.5       330.4       330.3    
        330.3       330.2       330.2       330.1       330.1    
   7    331.7       331.7       331.7       331.6       331.6       331.5       331.4       331.3       331.2       331.1    
        331.0       330.9       330.8       330.7       330.6       330.6       330.5       330.4       330.4       330.3    
        330.3       330.2       330.2       330.1       330.1    
   8    331.7       331.7       331.7       331.6       331.6       331.5       331.4       331.3       331.2       331.1    
        330.9       330.8       330.7       330.6       330.6       330.5       330.5       330.4       330.3       330.3    
        330.2       330.2       330.1       330.1       330.1    
   9    331.7       331.7       331.6       331.6       331.5       331.4       331.4       331.2       331.1       331.0    
        330.8       330.7       330.6       330.5       330.5       330.4       330.4       330.4       330.3       330.3    
        330.2       330.2       330.1       330.1       330.1    
  10    331.7       331.7       331.6       331.6       331.5       331.4       331.3       331.2       331.1       330.9    
        330.7       330.6       330.4       330.4       330.4       330.3       330.3       330.3       330.3       330.2    
        330.2       330.2       330.1       330.1       330.1    
  11    331.7       331.7       331.6       331.6       331.5       331.4       331.3       331.2       331.0       330.8    
        330.6       330.4       330.2       330.2       330.2       330.3       330.3       330.3       330.2       330.2    
        330.2       330.1       330.1       330.1       330.1    
  12    331.7       331.7       331.6       331.6       331.5       331.4       331.3       331.1       330.9       330.7    
        330.5       330.1       329.8       329.9       330.1       330.2       330.2       330.2       330.2       330.2    
        330.2       330.1       330.1       330.1       330.1    
  13    331.7       331.6       331.6       331.6       331.5       331.4       331.3       331.1       330.9       330.7    
        330.4       329.9       329.0       329.7       330.0       330.1       330.2       330.2       330.2       330.2    
        330.2       330.1       330.1       330.1       330.1    
  14    331.7       331.7       331.6       331.6       331.5       331.4       331.3       331.1       330.9       330.7    
        330.5       330.1       329.8       329.9       330.1       330.2       330.2       330.2       330.2       330.2    
        330.2       330.1       330.1       330.1       330.1    
  15    331.7       331.7       331.6       331.6       331.5       331.4       331.3       331.2       331.0       330.8    
        330.6       330.4       330.2       330.2       330.2       330.3       330.3       330.3       330.2       330.2    
        330.2       330.1       330.1       330.1       330.1    
  16    331.7       331.7       331.6       331.6       331.5       331.4       331.3       331.2       331.1       330.9    
        330.7       330.6       330.4       330.4       330.4       330.3       330.3       330.3       330.3       330.2    
        330.2       330.2       330.1       330.1       330.1    
  17    331.7       331.7       331.6       331.6       331.5       331.4       331.4       331.2       331.1       331.0    
        330.8       330.7       330.6       330.5       330.5       330.4       330.4       330.4       330.3       330.3    
        330.2       330.2       330.1       330.1       330.1    
  18    331.7       331.7       331.7       331.6       331.6       331.5       331.4       331.3       331.2       331.1    
        330.9       330.8       330.7       330.6       330.6       330.5       330.5       330.4       330.3       330.3    
        330.2       330.2       330.1       330.1       330.1    
  19    331.7       331.7       331.7       331.6       331.6       331.5       331.4       331.3       331.2       331.1    
        331.0       330.9       330.8       330.7       330.6       330.6       330.5       330.4       330.4       330.3    
        330.3       330.2       330.2       330.1       330.1    
  20    331.7       331.7       331.7       331.6       331.6       331.5       331.5       331.4       331.3       331.2    
        331.1       331.0       330.9       330.8       330.7       330.6       330.6       330.5       330.4       330.3    
        330.3       330.2       330.2       330.1       330.1    
  21    331.7       331.7       331.7       331.7       331.6       331.6       331.5       331.4       331.3       331.2    
        331.1       331.0       330.9       330.8       330.8       330.7       330.6       330.5       330.4       330.4    
        330.3       330.2       330.2       330.2       330.1    
  22    331.8       331.7       331.7       331.7       331.6       331.6       331.5       331.4       331.3       331.3    
        331.2       331.1       331.0       330.9       330.8       330.7       330.6       330.5       330.5       330.4    
        330.3       330.3       330.2       330.2       330.1    
  23    331.8       331.7       331.7       331.7       331.6       331.6       331.5       331.4       331.4       331.3    
        331.2       331.1       331.0       330.9       330.8       330.7       330.6       330.6       330.5       330.4    
        330.3       330.3       330.2       330.2       330.2    
  24    331.8       331.8       331.7       331.7       331.6       331.6       331.5       331.5       331.4       331.3    
        331.2       331.1       331.0       330.9       330.8       330.7       330.7       330.6       330.5       330.4    
        330.3       330.3       330.2       330.2       330.2    
  25    331.8       331.8       331.7       331.7       331.7       331.6       331.5       331.5       331.4       331.3    
        331.2       331.1       331.0       330.9       330.8       330.8       330.7       330.6       330.5       330.4    
        330.3       330.3       330.2       330.2       330.2    

 HEAD WILL BE SAVED ON UNIT   50 AT END OF TIME STEP    1, STRESS PERIOD    2



         TIME SUMMARY AT END OF TIME STEP    1 IN STRESS PERIOD    2
                    SECONDS     MINUTES      HOURS       DAYS        YEARS
                    -----------------------------------------------------------
   TIME STEP LENGTH 7.62375E+06 1.27062E+05  2117.7      88.238     0.24158    
 STRESS PERIOD TIME 7.62375E+06 1.27062E+05  2117.7      88.238     0.24158    
         TOTAL TIME 1.72876E+10 2.88127E+08 4.80212E+06 2.00088E+05  547.81    
1
 
 SOLVING FOR HEAD 
     1 CALLS TO PCG ROUTINE FOR TIME STEP   2 IN STRESS PERIOD    2
     1 TOTAL ITERATIONS

 MAXIMUM HEAD CHANGE FOR EACH ITERATION (1 INDICATES THE FIRST INNER ITERATION):

    HEAD CHANGE    HEAD CHANGE    HEAD CHANGE    HEAD CHANGE    HEAD CHANGE 
   LAYER,ROW,COL  LAYER,ROW,COL  LAYER,ROW,COL  LAYER,ROW,COL  LAYER,ROW,COL
 ---------------------------------------------------------------------------
  1 -0.1751E-04
   (  3,  3, 24)

 MAXIMUM RESIDUAL FOR EACH ITERATION (1 INDICATES THE FIRST INNER ITERATION):

    RESIDUAL       RESIDUAL       RESIDUAL       RESIDUAL       RESIDUAL    
   LAYER,ROW,COL  LAYER,ROW,COL  LAYER,ROW,COL  LAYER,ROW,COL  LAYER,ROW,COL
 ---------------------------------------------------------------------------
  1   1.137    
   (  1, 25, 25)



 OUTPUT CONTROL FOR STRESS PERIOD    2   TIME STEP    2
    SAVE BUDGET
    PRINT HEAD FOR ALL LAYERS
    SAVE HEAD FOR ALL LAYERS
 UBDSV1 SAVING "         STORAGE" ON UNIT  53 AT TIME STEP  2, STRESS PERIOD   2
 UBDSV2 SAVING "   CONSTANT HEAD" ON UNIT  53 AT TIME STEP  2, STRESS PERIOD   2
 UBDSV1 SAVING "FLOW RIGHT FACE " ON UNIT  53 AT TIME STEP  2, STRESS PERIOD   2
 UBDSV1 SAVING "FLOW FRONT FACE " ON UNIT  53 AT TIME STEP  2, STRESS PERIOD   2
 UBDSV1 SAVING "FLOW LOWER FACE " ON UNIT  53 AT TIME STEP  2, STRESS PERIOD   2
 UBDSV4 SAVING "   RIVER LEAKAGE" ON UNIT  53 AT TIME STEP  2, STRESS PERIOD   2
 UBDSV3 SAVING "        RECHARGE" ON UNIT  53 AT TIME STEP  2, STRESS PERIOD   2
1
              HEAD IN LAYER   1 AT END OF TIME STEP   2 IN STRESS PERIOD    2
  ---------------------------------------------------------------------------

            1           2           3           4           5           6           7           8           9          10
           11          12          13          14          15          16          17          18          19          20
           21          22          23          24          25
 ........................................................................................................................
   1    339.1       339.1       339.0       338.9       338.8       338.6       338.4       338.1       337.8       337.4    
        337.0       336.6       336.0       335.4       334.7       334.0       333.1       332.1       331.0       329.7    
        328.3       326.7       324.8       322.7       320.1    
   2    339.1       339.1       339.0       338.9       338.8       338.6       338.4       338.1       337.8       337.4    
        337.0       336.5       336.0       335.4       334.7       334.0       333.1       332.1       331.0       329.7    
        328.3       326.7       324.8       322.7       320.1    
   3    339.1       339.1       339.0       338.9       338.8       338.6       338.4       338.1       337.8       337.4    
        337.0       336.5       336.0       335.4       334.7       334.0       333.1       332.1       331.0       329.7    
        328.3       326.7       324.8       322.7       320.1    
   4    339.1       339.1       339.0       338.9       338.8       338.6       338.4       338.1       337.8       337.4    
        337.0       336.5       336.0       335.4       334.7       334.0       333.1       332.1       331.0       329.7    
        328.3       326.7       324.8       322.7       320.1    
   5    339.1       339.1       339.0       338.9       338.8       338.6       338.3       338.1       337.8       337.4    
        337.0       336.5       336.0       335.4       334.7       333.9       333.1       332.1       331.0       329.7    
        328.3       326.7       324.8       322.7       320.1    
   6    339.1       339.1       339.0       338.9       338.8       338.6       338.3       338.1       337.8       337.4    
        337.0       336.5       336.0       335.4       334.7       333.9       333.1       332.1       331.0       329.7    
        328.3       326.7       324.8       322.7       320.1    
   7    339.1       339.1       339.0       338.9       338.7       338.6       338.3       338.1       337.8       337.4    
        337.0       336.5       336.0       335.4       334.7       333.9       333.1       332.1       331.0       329.7    
        328.3       326.7       324.8       322.7       320.1    
   8    339.1       339.1       339.0       338.9       338.7       338.6       338.3       338.1       337.7       337.4    
        337.0       336.5       336.0       335.4       334.7       333.9       333.1       332.1       331.0       329.7    
        328.3       326.7       324.8       322.7       320.1    
   9    339.1       339.1       339.0       338.9       338.7       338.5       338.3       338.0       337.7       337.4    
        337.0       336.5       335.9       335.3       334.7       333.9       333.0       332.1       331.0       329.7    
        328.3       326.7       324.8       322.7       320.1    
  10    339.1       339.1       339.0       338.9       338.7       338.5       338.3       338.0       337.7       337.4    
        336.9       336.5       335.9       335.3       334.7       333.9       333.0       332.1       331.0       329.7    
        328.3       326.7       324.8       322.7       320.1    
  11    339.1       339.1       339.0       338.9       338.7       338.5       338.3       338.0       337.7       337.3    
        336.9       336.5       335.9       335.3       334.6       333.9       333.0       332.1       331.0       329.7    
        328.3       326.7       324.8       322.7       320.1    
  12    339.1       339.1       339.0       338.9       338.7       338.5       338.3       338.0       337.7       337.3    
        336.9       336.4       335.9       335.3       334.6       333.9       333.0       332.0       331.0       329.7    
        328.3       326.7       324.8       322.7       320.1    
  13    339.1       339.1       339.0       338.9       338.7       338.5       338.3       338.0       337.7       337.3    
        336.9       336.4       335.9       335.3       334.6       333.9       333.0       332.0       330.9       329.7    
        328.3       326.7       324.8       322.7       320.1    
  14    339.1       339.1       339.0       338.9       338.7       338.5       338.3       338.0       337.7       337.3    
        336.9       336.4       335.9       335.3       334.6       333.9       333.0       332.0       331.0       329.7    
        328.3       326.7       324.8       322.7       320.1    
  15    339.1       339.1       339.0       338.9       338.7       338.5       338.3       338.0       337.7       337.3    
        336.9       336.5       335.9       335.3       334.6       333.9       333.0       332.1       331.0       329.7    
        328.3       326.7       324.8       322.7       320.1    
  16    339.1       339.1       339.0       338.9       338.7       338.5       338.3       338.0       337.7       337.4    
        336.9       336.5       335.9       335.3       334.7       333.9       333.0       332.1       331.0       329.7    
        328.3       326.7       324.8       322.7       320.1    
  17    339.1       339.1       339.0       338.9       338.7       338.5       338.3       338.0       337.7       337.4    
        337.0       336.5       335.9       335.3       334.7       333.9       333.0       332.1       331.0       329.7    
        328.3       326.7       324.8       322.7       320.1    
  18    339.1       339.1       339.0       338.9       338.7       338.6       338.3       338.1       337.7       337.4    
        337.0       336.5       336.0       335.4       334.7       333.9       333.1       332.1       331.0       329.7    
        328.3       326.7       324.8       322.7       320.1    
  19    339.1       339.1       339.0       338.9       338.7       338.6       338.3       338.1       337.8       337.4    
        337.0       336.5       336.0       335.4       334.7       333.9       333.1       332.1       331.0       329.7    
        328.3       326.7       324.8       322.7       320.1    
  20    339.1       339.1       339.0       338.9       338.8       338.6       338.3       338.1       337.8       337.4    
        337.0       336.5       336.0       335.4       334.7       333.9       333.1       332.1       331.0       329.7    
        328.3       326.7       324.8       322.7       320.1    
  21    339.1       339.1       339.0       338.9       338.8       338.6       338.3       338.1       337.8       337.4    
        337.0       336.5       336.0       335.4       334.7       333.9       333.1       332.1       331.0       329.7    
        328.3       326.7       324.8       322.7       320.1    
  22    339.1       339.1       339.0       338.9       338.8       338.6       338.4       338.1       337.8       337.4    
        337.0       336.5       336.0       335.4       334.7       334.0       333.1       332.1       331.0       329.7    
        328.3       326.7       324.8       322.7       320.1    
  23    339.1       339.1       339.0       338.9       338.8       338.6       338.4       338.1       337.8       337.4    
        337.0       336.5       336.0       335.4       334.7       334.0       333.1       332.1       331.0       329.7    
        328.3       326.7       324.8       322.7       320.1    
  24    339.1       339.1       339.0       338.9       338.8       338.6       338.4       338.1       337.8       337.4    
        337.0       336.5       336.0       335.4       334.7       334.0       333.1       332.1       331.0       329.7    
        328.3       326.7       324.8       322.7       320.1    
  25    339.1       339.1       339.0       338.9       338.8       338.6       338.4       338.1       337.8       337.4    
        337.0       336.6       336.0       335.4       334.7       334.0       333.1       332.1       331.0       329.7    
        328.3       326.7       324.8       322.7       320.1    
1
              HEAD IN LAYER   2 AT END OF TIME STEP   2 IN STRESS PERIOD    2
  ---------------------------------------------------------------------------

            1           2           3           4           5           6           7           8           9          10
           11          12          13          14          15          16          17          18          19          20
           21          22          23          24          25
 ........................................................................................................................
   1    339.1       339.1       339.0       338.9       338.7       338.6       338.3       338.1       337.8       337.4    
        337.0       336.5       336.0       335.4       334.7       333.9       333.1       332.1       331.0       329.7    
        328.3       326.7       324.8       322.7       320.3    
   2    339.1       339.1       339.0       338.9       338.7       338.6       338.3       338.1       337.8       337.4    
        337.0       336.5       336.0       335.4       334.7       333.9       333.1       332.1       331.0       329.7    
        328.3       326.7       324.8       322.7       320.3    
   3    339.1       339.1       339.0       338.9       338.7       338.6       338.3       338.1       337.8       337.4    
        337.0       336.5       336.0       335.4       334.7       333.9       333.1       332.1       331.0       329.7    
        328.3       326.7       324.8       322.7       320.3    
   4    339.1       339.1       339.0       338.9       338.7       338.6       338.3       338.1       337.8       337.4    
        337.0       336.5       336.0       335.4       334.7       333.9       333.1       332.1       331.0       329.7    
        328.3       326.7       324.8       322.7       320.3    
   5    339.1       339.1       339.0       338.9       338.7       338.5       338.3       338.1       337.7       337.4    
        337.0       336.5       336.0       335.4       334.7       333.9       333.1       332.1       331.0       329.7    
        328.3       326.7       324.8       322.7       320.3    
   6    339.1       339.1       339.0       338.9       338.7       338.5       338.3       338.1       337.7       337.4    
        337.0       336.5       336.0       335.4       334.7       333.9       333.1       332.1       331.0       329.7    
        328.3       326.7       324.8       322.7       320.3    
   7    339.1       339.0       339.0       338.9       338.7       338.5       338.3       338.0       337.7       337.4    
        337.0       336.5       336.0       335.4       334.7       333.9       333.0       332.1       331.0       329.7    
        328.3       326.7       324.8       322.7       320.3    
   8    339.1       339.0       339.0       338.9       338.7       338.5       338.3       338.0       337.7       337.4    
        336.9       336.5       335.9       335.3       334.7       333.9       333.0       332.1       331.0       329.7    
        328.3       326.7       324.8       322.7       320.3    
   9    339.1       339.0       339.0       338.9       338.7       338.5       338.3       338.0       337.7       337.3    
        336.9       336.5       335.9       335.3       334.6       333.9       333.0       332.1       331.0       329.7    
        328.3       326.7       324.8       322.7       320.3    
  10    339.1       339.0       339.0       338.9       338.7       338.5       338.3       338.0       337.7       337.3    
        336.9       336.4       335.9       335.3       334.6       333.9       333.0       332.0       330.9       329.7    
        328.3       326.7       324.8       322.7       320.3    
  11    339.1       339.0       339.0       338.8       338.7       338.5       338.3       338.0       337.7       337.3    
        336.9       336.4       335.9       335.3       334.6       333.9       333.0       332.0       330.9       329.7    
        328.3       326.7       324.8       322.7       320.3    
  12    339.1       339.0       339.0       338.8       338.7       338.5       338.3       338.0       337.7       337.3    
        336.9       336.4       335.9       335.3       334.6       333.9       333.0       332.0       330.9       329.7    
        328.3       326.7       324.8       322.7       320.3    
  13    339.1       339.0       339.0       338.8       338.7       338.5       338.3       338.0       337.7       337.3    
        336.9       336.4       335.9       335.3       334.6       333.9       333.0       332.0       330.9       329.7    
        328.3       326.7       324.8       322.7       320.3    
  14    339.1       339.0       339.0       338.8       338.7       338.5       338.3       338.0       337.7       337.3    
        336.9       336.4       335.9       335.3       334.6       333.9       333.0       332.0       330.9       329.7    
        328.3       326.7       324.8       322.7       320.3    
  15    339.1       339.0       339.0       338.8       338.7       338.5       338.3       338.0       337.7       337.3    
        336.9       336.4       335.9       335.3       334.6       333.9       333.0       332.0       330.9       329.7    
        328.3       326.7       324.8       322.7       320.3    
  16    339.1       339.0       339.0       338.9       338.7       338.5       338.3       338.0       337.7       337.3    
        336.9       336.4       335.9       335.3       334.6       333.9       333.0       332.0       330.9       329.7    
        328.3       326.7       324.8       322.7       320.3    
  17    339.1       339.0       339.0       338.9       338.7       338.5       338.3       338.0       337.7       337.3    
        336.9       336.5       335.9       335.3       334.6       333.9       333.0       332.1       331.0       329.7    
        328.3       326.7       324.8       322.7       320.3    
  18    339.1       339.0       339.0       338.9       338.7       338.5       338.3       338.0       337.7       337.4    
        336.9       336.5       335.9       335.3       334.7       333.9       333.0       332.1       331.0       329.7    
        328.3       326.7       324.8       322.7       320.3    
  19    339.1       339.0       339.0       338.9       338.7       338.5       338.3       338.0       337.7       337.4    
        337.0       336.5       336.0       335.4       334.7       333.9       333.0       332.1       331.0       329.7    
        328.3       326.7       324.8       322.7       320.3    
  20    339.1       339.1       339.0       338.9       338.7       338.5       338.3       338.1       337.7       337.4    
        337.0       336.5       336.0       335.4       334.7       333.9       333.1       332.1       331.0       329.7    
        328.3       326.7       324.8       322.7       320.3    
  21    339.1       339.1       339.0       338.9       338.7       338.5       338.3       338.1       337.7       337.4    
        337.0       336.5       336.0       335.4       334.7       333.9       333.1       332.1       331.0       329.7    
        328.3       326.7       324.8       322.7       320.3    
  22    339.1       339.1       339.0       338.9       338.7       338.6       338.3       338.1       337.8       337.4    
        337.0       336.5       336.0       335.4       334.7       333.9       333.1       332.1       331.0       329.7    
        328.3       326.7       324.8       322.7       320.3    
  23    339.1       339.1       339.0       338.9       338.7       338.6       338.3       338.1       337.8       337.4    
        337.0       336.5       336.0       335.4       334.7       333.9       333.1       332.1       331.0       329.7    
        328.3       326.7       324.8       322.7       320.3    
  24    339.1       339.1       339.0       338.9       338.7       338.6       338.3       338.1       337.8       337.4    
        337.0       336.5       336.0       335.4       334.7       333.9       333.1       332.1       331.0       329.7    
        328.3       326.7       324.8       322.7       320.3    
  25    339.1       339.1       339.0       338.9       338.7       338.6       338.3       338.1       337.8       337.4    
        337.0       336.5       336.0       335.4       334.7       333.9       333.1       332.1       331.0       329.7    
        328.3       326.7       324.8       322.7       320.3    
1
              HEAD IN LAYER   3 AT END OF TIME STEP   2 IN STRESS PERIOD    2
  ---------------------------------------------------------------------------

            1           2           3           4           5           6           7           8           9          10
           11          12          13          14          15          16          17          18          19          20
           21          22          23          24          25
 ........................................................................................................................
   1    335.4       335.4       335.4       335.3       335.2       335.1       334.9       334.8       334.6       334.4    
        334.1       333.8       333.5       333.2       332.8       332.4       331.9       331.3       330.7       330.1    
        329.3       328.5       327.5       326.4       325.3    
   2    335.4       335.4       335.4       335.3       335.2       335.1       334.9       334.8       334.6       334.4    
        334.1       333.8       333.5       333.2       332.8       332.3       331.9       331.3       330.7       330.1    
        329.3       328.5       327.5       326.4       325.2    
   3    335.4       335.4       335.4       335.3       335.2       335.1       334.9       334.8       334.6       334.3    
        334.1       333.8       333.5       333.2       332.8       332.3       331.9       331.3       330.7       330.1    
        329.3       328.5       327.5       326.4       325.2    
   4    335.4       335.4       335.4       335.3       335.2       335.1       334.9       334.7       334.6       334.3    
        334.1       333.8       333.5       333.1       332.7       332.3       331.8       331.3       330.7       330.1    
        329.3       328.5       327.5       326.4       325.2    
   5    335.4       335.4       335.3       335.3       335.2       335.1       334.9       334.7       334.5       334.3    
        334.1       333.8       333.5       333.1       332.7       332.3       331.8       331.3       330.7       330.0    
        329.3       328.5       327.5       326.4       325.2    
   6    335.4       335.4       335.3       335.3       335.2       335.0       334.9       334.7       334.5       334.3    
        334.0       333.7       333.4       333.1       332.7       332.3       331.8       331.3       330.7       330.0    
        329.3       328.4       327.5       326.4       325.2    
   7    335.4       335.4       335.3       335.3       335.2       335.0       334.9       334.7       334.5       334.2    
        334.0       333.7       333.4       333.0       332.7       332.2       331.8       331.3       330.7       330.0    
        329.3       328.4       327.5       326.4       325.2    
   8    335.4       335.4       335.3       335.2       335.1       335.0       334.8       334.7       334.5       334.2    
        333.9       333.6       333.3       333.0       332.6       332.2       331.7       331.2       330.7       330.0    
        329.3       328.4       327.5       326.4       325.2    
   9    335.4       335.4       335.3       335.2       335.1       335.0       334.8       334.6       334.4       334.2    
        333.9       333.6       333.3       332.9       332.6       332.2       331.7       331.2       330.6       330.0    
        329.2       328.4       327.5       326.4       325.2    
  10    335.4       335.4       335.3       335.2       335.1       335.0       334.8       334.6       334.4       334.1    
        333.8       333.5       333.2       332.8       332.5       332.1       331.7       331.2       330.6       330.0    
        329.2       328.4       327.5       326.4       325.2    
  11    335.4       335.3       335.3       335.2       335.1       335.0       334.8       334.6       334.3       334.1    
        333.8       333.4       333.0       332.7       332.4       332.1       331.6       331.2       330.6       330.0    
        329.2       328.4       327.5       326.4       325.2    
  12    335.4       335.3       335.3       335.2       335.1       335.0       334.8       334.6       334.3       334.0    
        333.7       333.3       332.8       332.6       332.4       332.0       331.6       331.1       330.6       329.9    
        329.2       328.4       327.5       326.4       325.2    
  13    335.4       335.3       335.3       335.2       335.1       335.0       334.8       334.6       334.3       334.0    
        333.6       333.1       332.3       332.5       332.3       332.0       331.6       331.1       330.6       329.9    
        329.2       328.4       327.5       326.4       325.2    
  14    335.4       335.3       335.3       335.2       335.1       335.0       334.8       334.6       334.3       334.0    
        333.7       333.3       332.8       332.6       332.4       332.0       331.6       331.1       330.6       329.9    
        329.2       328.4       327.5       326.4       325.2    
  15    335.4       335.3       335.3       335.2       335.1       335.0       334.8       334.6       334.3       334.1    
        333.8       333.4       333.0       332.7       332.4       332.1       331.6       331.2       330.6       330.0    
        329.2       328.4       327.5       326.4       325.2    
  16    335.4       335.4       335.3       335.2       335.1       335.0       334.8       334.6       334.4       334.1    
        333.8       333.5       333.2       332.8       332.5       332.1       331.7       331.2       330.6       330.0    
        329.2       328.4       327.5       326.4       325.2    
  17    335.4       335.4       335.3       335.2       335.1       335.0       334.8       334.6       334.4       334.2    
        333.9       333.6       333.3       332.9       332.6       332.2       331.7       331.2       330.6       330.0    
        329.2       328.4       327.5       326.4       325.2    
  18    335.4       335.4       335.3       335.2       335.1       335.0       334.8       334.7       334.5       334.2    
        333.9       333.6       333.3       333.0       332.6       332.2       331.7       331.2       330.7       330.0    
        329.3       328.4       327.5       326.4       325.2    
  19    335.4       335.4       335.3       335.3       335.2       335.0       334.9       334.7       334.5       334.2    
        334.0       333.7       333.4       333.0       332.7       332.2       331.8       331.3       330.7       330.0    
        329.3       328.4       327.5       326.4       325.2    
  20    335.4       335.4       335.3       335.3       335.2       335.0       334.9       334.7       334.5       334.3    
        334.0       333.7       333.4       333.1       332.7       332.3       331.8       331.3       330.7       330.0    
        329.3       328.4       327.5       326.4       325.2    
  21    335.4       335.4       335.3       335.3       335.2       335.1       334.9       334.7       334.5       334.3    
        334.1       333.8       333.5       333.1       332.7       332.3       331.8       331.3       330.7       330.0    
        329.3       328.5       327.5       326.4       325.2    
  22    335.4       335.4       335.4       335.3       335.2       335.1       334.9       334.7       334.6       334.3    
        334.1       333.8       333.5       333.1       332.7       332.3       331.8       331.3       330.7       330.1    
        329.3       328.5       327.5       326.4       325.2    
  23    335.4       335.4       335.4       335.3       335.2       335.1       334.9       334.8       334.6       334.3    
        334.1       333.8       333.5       333.2       332.8       332.3       331.9       331.3       330.7       330.1    
        329.3       328.5       327.5       326.4       325.2    
  24    335.4       335.4       335.4       335.3       335.2       335.1       334.9       334.8       334.6       334.4    
        334.1       333.8       333.5       333.2       332.8       332.3       331.9       331.3       330.7       330.1    
        329.3       328.5       327.5       326.4       325.2    
  25    335.4       335.4       335.4       335.3       335.2       335.1       334.9       334.8       334.6       334.4    
        334.1       333.8       333.5       333.2       332.8       332.4       331.9       331.3       330.7       330.1    
        329.3       328.5       327.5       326.4       325.3    
1
              HEAD IN LAYER   4 AT END OF TIME STEP   2 IN STRESS PERIOD    2
  ---------------------------------------------------------------------------

            1           2           3           4           5           6           7           8           9          10
           11          12          13          14          15          16          17          18          19          20
           21          22          23          24          25
 ........................................................................................................................
   1    331.8       331.8       331.7       331.7       331.7       331.6       331.5       331.5       331.4       331.3    
        331.2       331.1       331.0       330.9       330.8       330.8       330.7       330.6       330.5       330.4    
        330.3       330.3       330.2       330.2       330.2    
   2    331.8       331.8       331.7       331.7       331.7       331.6       331.5       331.5       331.4       331.3    
        331.2       331.1       331.0       330.9       330.8       330.7       330.7       330.6       330.5       330.4    
        330.3       330.3       330.2       330.2       330.1    
   3    331.8       331.8       331.7       331.7       331.6       331.6       331.5       331.5       331.4       331.3    
        331.2       331.1       331.0       330.9       330.8       330.7       330.6       330.6       330.5       330.4    
        330.3       330.3       330.2       330.2       330.1    
   4    331.8       331.7       331.7       331.7       331.6       331.6       331.5       331.4       331.3       331.3    
        331.2       331.1       331.0       330.9       330.8       330.7       330.6       330.5       330.5       330.4    
        330.3       330.3       330.2       330.2       330.1    
   5    331.8       331.7       331.7       331.7       331.6       331.6       331.5       331.4       331.3       331.2    
        331.1       331.0       330.9       330.8       330.8       330.7       330.6       330.5       330.4       330.4    
        330.3       330.2       330.2       330.1       330.1    
   6    331.7       331.7       331.7       331.7       331.6       331.5       331.5       331.4       331.3       331.2    
        331.1       331.0       330.9       330.8       330.7       330.6       330.6       330.5       330.4       330.3    
        330.3       330.2       330.2       330.1       330.1    
   7    331.7       331.7       331.7       331.6       331.6       331.5       331.4       331.3       331.2       331.1    
        331.0       330.9       330.8       330.7       330.6       330.6       330.5       330.4       330.4       330.3    
        330.3       330.2       330.2       330.1       330.1    
   8    331.7       331.7       331.7       331.6       331.6       331.5       331.4       331.3       331.2       331.1    
        330.9       330.8       330.7       330.6       330.6       330.5       330.5       330.4       330.3       330.3    
        330.2       330.2       330.1       330.1       330.1    
   9    331.7       331.7       331.7       331.6       331.5       331.5       331.4       331.2       331.1       331.0    
        330.8       330.7       330.6       330.5       330.5       330.4       330.4       330.4       330.3       330.3    
        330.2       330.2       330.1       330.1       330.1    
  10    331.7       331.7       331.6       331.6       331.5       331.4       331.3       331.2       331.1       330.9    
        330.7       330.6       330.4       330.4       330.4       330.3       330.3       330.3       330.3       330.2    
        330.2       330.2       330.1       330.1       330.1    
  11    331.7       331.7       331.6       331.6       331.5       331.4       331.3       331.2       331.0       330.8    
        330.6       330.4       330.2       330.2       330.2       330.3       330.3       330.3       330.2       330.2    
        330.2       330.1       330.1       330.1       330.1    
  12    331.7       331.7       331.6       331.6       331.5       331.4       331.3       331.1       331.0       330.7    
        330.5       330.1       329.8       329.9       330.1       330.2       330.2       330.2       330.2       330.2    
        330.2       330.1       330.1       330.1       330.1    
  13    331.7       331.7       331.6       331.6       331.5       331.4       331.3       331.1       330.9       330.7    
        330.4       329.8       328.7       329.7       330.0       330.1       330.2       330.2       330.2       330.2    
        330.2       330.1       330.1       330.1       330.1    
  14    331.7       331.7       331.6       331.6       331.5       331.4       331.3       331.1       331.0       330.7    
        330.5       330.1       329.8       329.9       330.1       330.2       330.2       330.2       330.2       330.2    
        330.2       330.1       330.1       330.1       330.1    
  15    331.7       331.7       331.6       331.6       331.5       331.4       331.3       331.2       331.0       330.8    
        330.6       330.4       330.2       330.2       330.2       330.3       330.3       330.3       330.2       330.2    
        330.2       330.1       330.1       330.1       330.1    
  16    331.7       331.7       331.6       331.6       331.5       331.4       331.3       331.2       331.1       330.9    
        330.7       330.6       330.4       330.4       330.4       330.3       330.3       330.3       330.3       330.2    
        330.2       330.2       330.1       330.1       330.1    
  17    331.7       331.7       331.7       331.6       331.5       331.5       331.4       331.2       331.1       331.0    
        330.8       330.7       330.6       330.5       330.5       330.4       330.4       330.4       330.3       330.3    
        330.2       330.2       330.1       330.1       330.1    
  18    331.7       331.7       331.7       331.6       331.6       331.5       331.4       331.3       331.2       331.1    
        330.9       330.8       330.7       330.6       330.6       330.5       330.5       330.4       330.3       330.3    
        330.2       330.2       330.1       330.1       330.1    
  19    331.7       331.7       331.7       331.6       331.6       331.5       331.4       331.3       331.2       331.1    
        331.0       330.9       330.8       330.7       330.6       330.6       330.5       330.4       330.4       330.3    
        330.3       330.2       330.2       330.1       330.1    
  20    331.7       331.7       331.7       331.7       331.6       331.5       331.5       331.4       331.3       331.2    
        331.1       331.0       330.9       330.8       330.7       330.6       330.6       330.5       330.4       330.3    
        330.3       330.2       330.2       330.1       330.1    
  21    331.8       331.7       331.7       331.7       331.6       331.6       331.5       331.4       331.3       331.2    
        331.1       331.0       330.9       330.8       330.8       330.7       330.6       330.5       330.4       330.4    
        330.3       330.2       330.2       330.1       330.1    
  22    331.8       331.7       331.7       331.7       331.6       331.6       331.5       331.4       331.3       331.3    
        331.2       331.1       331.0       330.9       330.8       330.7       330.6       330.5       330.5       330.4    
        330.3       330.3       330.2       330.2       330.1    
  23    331.8       331.8       331.7       331.7       331.6       331.6       331.5       331.5       331.4       331.3    
        331.2       331.1       331.0       330.9       330.8       330.7       330.6       330.6       330.5       330.4    
        330.3       330.3       330.2       330.2       330.1    
  24    331.8       331.8       331.7       331.7       331.7       331.6       331.5       331.5       331.4       331.3    
        331.2       331.1       331.0       330.9       330.8       330.7       330.7       330.6       330.5       330.4    
        330.3       330.3       330.2       330.2       330.1    
  25    331.8       331.8       331.7       331.7       331.7       331.6       331.5       331.5       331.4       331.3    
        331.2       331.1       331.0       330.9       330.8       330.8       330.7       330.6       330.5       330.4    
        330.3       330.3       330.2       330.2       330.2    
1
              HEAD IN LAYER   5 AT END OF TIME STEP   2 IN STRESS PERIOD    2
  ---------------------------------------------------------------------------

            1           2           3           4           5           6           7           8           9          10
           11          12          13          14          15          16          17          18          19          20
           21          22          23          24          25
 ........................................................................................................................
   1    331.8       331.8       331.7       331.7       331.7       331.6       331.5       331.5       331.4       331.3    
        331.2       331.1       331.0       330.9       330.8       330.8       330.7       330.6       330.5       330.4    
        330.3       330.3       330.2       330.2       330.2    
   2    331.8       331.8       331.7       331.7       331.6       331.6       331.5       331.5       331.4       331.3    
        331.2       331.1       331.0       330.9       330.8       330.7       330.7       330.6       330.5       330.4    
        330.3       330.3       330.2       330.2       330.2    
   3    331.8       331.7       331.7       331.7       331.6       331.6       331.5       331.4       331.4       331.3    
        331.2       331.1       331.0       330.9       330.8       330.7       330.6       330.6       330.5       330.4    
        330.3       330.3       330.2       330.2       330.2    
   4    331.8       331.7       331.7       331.7       331.6       331.6       331.5       331.4       331.3       331.3    
        331.2       331.1       331.0       330.9       330.8       330.7       330.6       330.5       330.5       330.4    
        330.3       330.3       330.2       330.2       330.1    
   5    331.7       331.7       331.7       331.7       331.6       331.6       331.5       331.4       331.3       331.2    
        331.1       331.0       330.9       330.8       330.8       330.7       330.6       330.5       330.4       330.4    
        330.3       330.2       330.2       330.2       330.1    
   6    331.7       331.7       331.7       331.6       331.6       331.5       331.5       331.4       331.3       331.2    
        331.1       331.0       330.9       330.8       330.7       330.6       330.6       330.5       330.4       330.3    
        330.3       330.2       330.2       330.1       330.1    
   7    331.7       331.7       331.7       331.6       331.6       331.5       331.4       331.3       331.2       331.1    
        331.0       330.9       330.8       330.7       330.6       330.6       330.5       330.4       330.4       330.3    
        330.3       330.2       330.2       330.1       330.1    
   8    331.7       331.7       331.7       331.6       331.6       331.5       331.4       331.3       331.2       331.1    
        330.9       330.8       330.7       330.6       330.6       330.5       330.5       330.4       330.3       330.3    
        330.2       330.2       330.1       330.1       330.1    
   9    331.7       331.7       331.6       331.6       331.5       331.4       331.4       331.2       331.1       331.0    
        330.8       330.7       330.6       330.5       330.5       330.4       330.4       330.4       330.3       330.3    
        330.2       330.2       330.1       330.1       330.1    
  10    331.7       331.7       331.6       331.6       331.5       331.4       331.3       331.2       331.1       330.9    
        330.7       330.6       330.4       330.4       330.4       330.3       330.3       330.3       330.3       330.2    
        330.2       330.2       330.1       330.1       330.1    
  11    331.7       331.7       331.6       331.6       331.5       331.4       331.3       331.2       331.0       330.8    
        330.6       330.4       330.2       330.2       330.2       330.3       330.3       330.3       330.2       330.2    
        330.2       330.1       330.1       330.1       330.1    
  12    331.7       331.7       331.6       331.6       331.5       331.4       331.3       331.1       330.9       330.7    
        330.5       330.1       329.8       329.9       330.1       330.2       330.2       330.2       330.2       330.2    
        330.2       330.1       330.1       330.1       330.1    
  13    331.7       331.6       331.6       331.6       331.5       331.4       331.3       331.1       330.9       330.7    
        330.4       329.9       329.0       329.7       330.0       330.1       330.2       330.2       330.2       330.2    
        330.2       330.1       330.1       330.1       330.1    
  14    331.7       331.7       331.6       331.6       331.5       331.4       331.3       331.1       330.9       330.7    
        330.5       330.1       329.8       329.9       330.1       330.2       330.2       330.2       330.2       330.2    
        330.2       330.1       330.1       330.1       330.1    
  15    331.7       331.7       331.6       331.6       331.5       331.4       331.3       331.2       331.0       330.8    
        330.6       330.4       330.2       330.2       330.2       330.3       330.3       330.3       330.2       330.2    
        330.2       330.1       330.1       330.1       330.1    
  16    331.7       331.7       331.6       331.6       331.5       331.4       331.3       331.2       331.1       330.9    
        330.7       330.6       330.4       330.4       330.4       330.3       330.3       330.3       330.3       330.2    
        330.2       330.2       330.1       330.1       330.1    
  17    331.7       331.7       331.6       331.6       331.5       331.4       331.4       331.2       331.1       331.0    
        330.8       330.7       330.6       330.5       330.5       330.4       330.4       330.4       330.3       330.3    
        330.2       330.2       330.1       330.1       330.1    
  18    331.7       331.7       331.7       331.6       331.6       331.5       331.4       331.3       331.2       331.1    
        330.9       330.8       330.7       330.6       330.6       330.5       330.5       330.4       330.3       330.3    
        330.2       330.2       330.1       330.1       330.1    
  19    331.7       331.7       331.7       331.6       331.6       331.5       331.4       331.3       331.2       331.1    
        331.0       330.9       330.8       330.7       330.6       330.6       330.5       330.4       330.4       330.3    
        330.3       330.2       330.2       330.1       330.1    
  20    331.7       331.7       331.7       331.6       331.6       331.5       331.5       331.4       331.3       331.2    
        331.1       331.0       330.9       330.8       330.7       330.6       330.6       330.5       330.4       330.3    
        330.3       330.2       330.2       330.1       330.1    
  21    331.7       331.7       331.7       331.7       331.6       331.6       331.5       331.4       331.3       331.2    
        331.1       331.0       330.9       330.8       330.8       330.7       330.6       330.5       330.4       330.4    
        330.3       330.2       330.2       330.2       330.1    
  22    331.8       331.7       331.7       331.7       331.6       331.6       331.5       331.4       331.3       331.3    
        331.2       331.1       331.0       330.9       330.8       330.7       330.6       330.5       330.5       330.4    
        330.3       330.3       330.2       330.2       330.1    
  23    331.8       331.7       331.7       331.7       331.6       331.6       331.5       331.4       331.4       331.3    
        331.2       331.1       331.0       330.9       330.8       330.7       330.6       330.6       330.5       330.4    
        330.3       330.3       330.2       330.2       330.2    
  24    331.8       331.8       331.7       331.7       331.6       331.6       331.5       331.5       331.4       331.3    
        331.2       331.1       331.0       330.9       330.8       330.7       330.7       330.6       330.5       330.4    
        330.3       330.3       330.2       330.2       330.2    
  25    331.8       331.8       331.7       331.7       331.7       331.6       331.5       331.5       331.4       331.3    
        331.2       331.1       331.0       330.9       330.8       330.8       330.7       330.6       330.5       330.4    
        330.3       330.3       330.2       330.2       330.2    

 HEAD WILL BE SAVED ON UNIT   50 AT END OF TIME STEP    2, STRESS PERIOD    2



         TIME SUMMARY AT END OF TIME STEP    2 IN STRESS PERIOD    2
                    SECONDS     MINUTES      HOURS       DAYS        YEARS
                    -----------------------------------------------------------
   TIME STEP LENGTH 1.14356E+07 1.90594E+05  3176.6      132.36     0.36237    
 STRESS PERIOD TIME 1.90594E+07 3.17656E+05  5294.3      220.59     0.60396    
         TOTAL TIME 1.72991E+10 2.88318E+08 4.80529E+06 2.00221E+05  548.17    
1
 
 SOLVING FOR HEAD 
     1 CALLS TO PCG ROUTINE FOR TIME STEP   3 IN STRESS PERIOD    2
     1 TOTAL ITERATIONS

 MAXIMUM HEAD CHANGE FOR EACH ITERATION (1 INDICATES THE FIRST INNER ITERATION):

    HEAD CHANGE    HEAD CHANGE    HEAD CHANGE    HEAD CHANGE    HEAD CHANGE 
   LAYER,ROW,COL  LAYER,ROW,COL  LAYER,ROW,COL  LAYER,ROW,COL  LAYER,ROW,COL
 ---------------------------------------------------------------------------
  1  0.1104E-04
   (  5, 12, 14)

 MAXIMUM RESIDUAL FOR EACH ITERATION (1 INDICATES THE FIRST INNER ITERATION):

    RESIDUAL       RESIDUAL       RESIDUAL       RESIDUAL       RESIDUAL    
   LAYER,ROW,COL  LAYER,ROW,COL  LAYER,ROW,COL  LAYER,ROW,COL  LAYER,ROW,COL
 ---------------------------------------------------------------------------
  1 -0.6631    
   (  4, 13, 13)



 OUTPUT CONTROL FOR STRESS PERIOD    2   TIME STEP    3
    SAVE BUDGET
    PRINT HEAD FOR ALL LAYERS
    SAVE HEAD FOR ALL LAYERS
 UBDSV1 SAVING "         STORAGE" ON UNIT  53 AT TIME STEP  3, STRESS PERIOD   2
 UBDSV2 SAVING "   CONSTANT HEAD" ON UNIT  53 AT TIME STEP  3, STRESS PERIOD   2
 UBDSV1 SAVING "FLOW RIGHT FACE " ON UNIT  53 AT TIME STEP  3, STRESS PERIOD   2
 UBDSV1 SAVING "FLOW FRONT FACE " ON UNIT  53 AT TIME STEP  3, STRESS PERIOD   2
 UBDSV1 SAVING "FLOW LOWER FACE " ON UNIT  53 AT TIME STEP  3, STRESS PERIOD   2
 UBDSV4 SAVING "   RIVER LEAKAGE" ON UNIT  53 AT TIME STEP  3, STRESS PERIOD   2
 UBDSV3 SAVING "        RECHARGE" ON UNIT  53 AT TIME STEP  3, STRESS PERIOD   2
1
              HEAD IN LAYER   1 AT END OF TIME STEP   3 IN STRESS PERIOD    2
  ---------------------------------------------------------------------------

            1           2           3           4           5           6           7           8           9          10
           11          12          13          14          15          16          17          18          19          20
           21          22          23          24          25
 ........................................................................................................................
   1    339.1       339.1       339.0       338.9       338.8       338.6       338.4       338.1       337.8       337.4    
        337.0       336.6       336.0       335.4       334.7       334.0       333.1       332.1       331.0       329.7    
        328.3       326.7       324.8       322.7       320.1    
   2    339.1       339.1       339.0       338.9       338.8       338.6       338.4       338.1       337.8       337.4    
        337.0       336.5       336.0       335.4       334.7       334.0       333.1       332.1       331.0       329.7    
        328.3       326.7       324.8       322.7       320.1    
   3    339.1       339.1       339.0       338.9       338.8       338.6       338.4       338.1       337.8       337.4    
        337.0       336.5       336.0       335.4       334.7       334.0       333.1       332.1       331.0       329.7    
        328.3       326.7       324.8       322.7       320.1    
   4    339.1       339.1       339.0       338.9       338.8       338.6       338.4       338.1       337.8       337.4    
        337.0       336.5       336.0       335.4       334.7       334.0       333.1       332.1       331.0       329.7    
        328.3       326.7       324.8       322.7       320.1    
   5    339.1       339.1       339.0       338.9       338.8       338.6       338.3       338.1       337.8       337.4    
        337.0       336.5       336.0       335.4       334.7       333.9       333.1       332.1       331.0       329.7    
        328.3       326.7       324.8       322.7       320.1    
   6    339.1       339.1       339.0       338.9       338.8       338.6       338.3       338.1       337.8       337.4    
        337.0       336.5       336.0       335.4       334.7       333.9       333.1       332.1       331.0       329.7    
        328.3       326.7       324.8       322.7       320.1    
   7    339.1       339.1       339.0       338.9       338.7       338.6       338.3       338.1       337.8       337.4    
        337.0       336.5       336.0       335.4       334.7       333.9       333.1       332.1       331.0       329.7    
        328.3       326.7       324.8       322.7       320.1    
   8    339.1       339.1       339.0       338.9       338.7       338.6       338.3       338.1       337.7       337.4    
        337.0       336.5       336.0       335.4       334.7       333.9       333.1       332.1       331.0       329.7    
        328.3       326.7       324.8       322.7       320.1    
   9    339.1       339.1       339.0       338.9       338.7       338.5       338.3       338.0       337.7       337.4    
        337.0       336.5       335.9       335.3       334.7       333.9       333.0       332.1       331.0       329.7    
        328.3       326.7       324.8       322.7       320.1    
  10    339.1       339.1       339.0       338.9       338.7       338.5       338.3       338.0       337.7       337.4    
        336.9       336.5       335.9       335.3       334.7       333.9       333.0       332.1       331.0       329.7    
        328.3       326.7       324.8       322.7       320.1    
  11    339.1       339.1       339.0       338.9       338.7       338.5       338.3       338.0       337.7       337.3    
        336.9       336.5       335.9       335.3       334.6       333.9       333.0       332.1       331.0       329.7    
        328.3       326.7       324.8       322.7       320.1    
  12    339.1       339.1       339.0       338.9       338.7       338.5       338.3       338.0       337.7       337.3    
        336.9       336.4       335.9       335.3       334.6       333.9       333.0       332.0       331.0       329.7    
        328.3       326.7       324.8       322.7       320.1    
  13    339.1       339.1       339.0       338.9       338.7       338.5       338.3       338.0       337.7       337.3    
        336.9       336.4       335.9       335.3       334.6       333.9       333.0       332.0       330.9       329.7    
        328.3       326.7       324.8       322.7       320.1    
  14    339.1       339.1       339.0       338.9       338.7       338.5       338.3       338.0       337.7       337.3    
        336.9       336.4       335.9       335.3       334.6       333.9       333.0       332.0       331.0       329.7    
        328.3       326.7       324.8       322.7       320.1    
  15    339.1       339.1       339.0       338.9       338.7       338.5       338.3       338.0       337.7       337.3    
        336.9       336.5       335.9       335.3       334.6       333.9       333.0       332.1       331.0       329.7    
        328.3       326.7       324.8       322.7       320.1    
  16    339.1       339.1       339.0       338.9       338.7       338.5       338.3       338.0       337.7       337.4    
        336.9       336.5       335.9       335.3       334.7       333.9       333.0       332.1       331.0       329.7    
        328.3       326.7       324.8       322.7       320.1    
  17    339.1       339.1       339.0       338.9       338.7       338.5       338.3       338.0       337.7       337.4    
        337.0       336.5       335.9       335.3       334.7       333.9       333.0       332.1       331.0       329.7    
        328.3       326.7       324.8       322.7       320.1    
  18    339.1       339.1       339.0       338.9       338.7       338.6       338.3       338.1       337.7       337.4    
        337.0       336.5       336.0       335.4       334.7       333.9       333.1       332.1       331.0       329.7    
        328.3       326.7       324.8       322.7       320.1    
  19    339.1       339.1       339.0       338.9       338.7       338.6       338.3       338.1       337.8       337.4    
        337.0       336.5       336.0       335.4       334.7       333.9       333.1       332.1       331.0       329.7    
        328.3       326.7       324.8       322.7       320.1    
  20    339.1       339.1       339.0       338.9       338.8       338.6       338.3       338.1       337.8       337.4    
        337.0       336.5       336.0       335.4       334.7       333.9       333.1       332.1       331.0       329.7    
        328.3       326.7       324.8       322.7       320.1    
  21    339.1       339.1       339.0       338.9       338.8       338.6       338.3       338.1       337.8       337.4    
        337.0       336.5       336.0       335.4       334.7       333.9       333.1       332.1       331.0       329.7    
        328.3       326.7       324.8       322.7       320.1    
  22    339.1       339.1       339.0       338.9       338.8       338.6       338.4       338.1       337.8       337.4    
        337.0       336.5       336.0       335.4       334.7       334.0       333.1       332.1       331.0       329.7    
        328.3       326.7       324.8       322.7       320.1    
  23    339.1       339.1       339.0       338.9       338.8       338.6       338.4       338.1       337.8       337.4    
        337.0       336.5       336.0       335.4       334.7       334.0       333.1       332.1       331.0       329.7    
        328.3       326.7       324.8       322.7       320.1    
  24    339.1       339.1       339.0       338.9       338.8       338.6       338.4       338.1       337.8       337.4    
        337.0       336.5       336.0       335.4       334.7       334.0       333.1       332.1       331.0       329.7    
        328.3       326.7       324.8       322.7       320.1    
  25    339.1       339.1       339.0       338.9       338.8       338.6       338.4       338.1       337.8       337.4    
        337.0       336.6       336.0       335.4       334.7       334.0       333.1       332.1       331.0       329.7    
        328.3       326.7       324.8       322.7       320.1    
1
              HEAD IN LAYER   2 AT END OF TIME STEP   3 IN STRESS PERIOD    2
  ---------------------------------------------------------------------------

            1           2           3           4           5           6           7           8           9          10
           11          12          13          14          15          16          17          18          19          20
           21          22          23          24          25
 ........................................................................................................................
   1    339.1       339.1       339.0       338.9       338.7       338.6       338.3       338.1       337.8       337.4    
        337.0       336.5       336.0       335.4       334.7       333.9       333.1       332.1       331.0       329.7    
        328.3       326.7       324.8       322.7       320.3    
   2    339.1       339.1       339.0       338.9       338.7       338.6       338.3       338.1       337.8       337.4    
        337.0       336.5       336.0       335.4       334.7       333.9       333.1       332.1       331.0       329.7    
        328.3       326.7       324.8       322.7       320.3    
   3    339.1       339.1       339.0       338.9       338.7       338.6       338.3       338.1       337.8       337.4    
        337.0       336.5       336.0       335.4       334.7       333.9       333.1       332.1       331.0       329.7    
        328.3       326.7       324.8       322.7       320.3    
   4    339.1       339.1       339.0       338.9       338.7       338.6       338.3       338.1       337.8       337.4    
        337.0       336.5       336.0       335.4       334.7       333.9       333.1       332.1       331.0       329.7    
        328.3       326.7       324.8       322.7       320.3    
   5    339.1       339.1       339.0       338.9       338.7       338.5       338.3       338.1       337.7       337.4    
        337.0       336.5       336.0       335.4       334.7       333.9       333.1       332.1       331.0       329.7    
        328.3       326.7       324.8       322.7       320.3    
   6    339.1       339.1       339.0       338.9       338.7       338.5       338.3       338.1       337.7       337.4    
        337.0       336.5       336.0       335.4       334.7       333.9       333.1       332.1       331.0       329.7    
        328.3       326.7       324.8       322.7       320.3    
   7    339.1       339.0       339.0       338.9       338.7       338.5       338.3       338.0       337.7       337.4    
        337.0       336.5       336.0       335.4       334.7       333.9       333.0       332.1       331.0       329.7    
        328.3       326.7       324.8       322.7       320.3    
   8    339.1       339.0       339.0       338.9       338.7       338.5       338.3       338.0       337.7       337.4    
        336.9       336.5       335.9       335.3       334.7       333.9       333.0       332.1       331.0       329.7    
        328.3       326.7       324.8       322.7       320.3    
   9    339.1       339.0       339.0       338.9       338.7       338.5       338.3       338.0       337.7       337.3    
        336.9       336.5       335.9       335.3       334.6       333.9       333.0       332.1       331.0       329.7    
        328.3       326.7       324.8       322.7       320.3    
  10    339.1       339.0       339.0       338.9       338.7       338.5       338.3       338.0       337.7       337.3    
        336.9       336.4       335.9       335.3       334.6       333.9       333.0       332.0       330.9       329.7    
        328.3       326.7       324.8       322.7       320.3    
  11    339.1       339.0       339.0       338.8       338.7       338.5       338.3       338.0       337.7       337.3    
        336.9       336.4       335.9       335.3       334.6       333.9       333.0       332.0       330.9       329.7    
        328.3       326.7       324.8       322.7       320.3    
  12    339.1       339.0       339.0       338.8       338.7       338.5       338.3       338.0       337.7       337.3    
        336.9       336.4       335.9       335.3       334.6       333.9       333.0       332.0       330.9       329.7    
        328.3       326.7       324.8       322.7       320.3    
  13    339.1       339.0       339.0       338.8       338.7       338.5       338.3       338.0       337.7       337.3    
        336.9       336.4       335.9       335.3       334.6       333.9       333.0       332.0       330.9       329.7    
        328.3       326.7       324.8       322.7       320.3    
  14    339.1       339.0       339.0       338.8       338.7       338.5       338.3       338.0       337.7       337.3    
        336.9       336.4       335.9       335.3       334.6       333.9       333.0       332.0       330.9       329.7    
        328.3       326.7       324.8       322.7       320.3    
  15    339.1       339.0       339.0       338.8       338.7       338.5       338.3       338.0       337.7       337.3    
        336.9       336.4       335.9       335.3       334.6       333.9       333.0       332.0       330.9       329.7    
        328.3       326.7       324.8       322.7       320.3    
  16    339.1       339.0       339.0       338.9       338.7       338.5       338.3       338.0       337.7       337.3    
        336.9       336.4       335.9       335.3       334.6       333.9       333.0       332.0       330.9       329.7    
        328.3       326.7       324.8       322.7       320.3    
  17    339.1       339.0       339.0       338.9       338.7       338.5       338.3       338.0       337.7       337.3    
        336.9       336.5       335.9       335.3       334.6       333.9       333.0       332.1       331.0       329.7    
        328.3       326.7       324.8       322.7       320.3    
  18    339.1       339.0       339.0       338.9       338.7       338.5       338.3       338.0       337.7       337.4    
        336.9       336.5       335.9       335.3       334.7       333.9       333.0       332.1       331.0       329.7    
        328.3       326.7       324.8       322.7       320.3    
  19    339.1       339.0       339.0       338.9       338.7       338.5       338.3       338.0       337.7       337.4    
        337.0       336.5       336.0       335.4       334.7       333.9       333.0       332.1       331.0       329.7    
        328.3       326.7       324.8       322.7       320.3    
  20    339.1       339.1       339.0       338.9       338.7       338.5       338.3       338.1       337.7       337.4    
        337.0       336.5       336.0       335.4       334.7       333.9       333.1       332.1       331.0       329.7    
        328.3       326.7       324.8       322.7       320.3    
  21    339.1       339.1       339.0       338.9       338.7       338.5       338.3       338.1       337.7       337.4    
        337.0       336.5       336.0       335.4       334.7       333.9       333.1       332.1       331.0       329.7    
        328.3       326.7       324.8       322.7       320.3    
  22    339.1       339.1       339.0       338.9       338.7       338.6       338.3       338.1       337.8       337.4    
        337.0       336.5       336.0       335.4       334.7       333.9       333.1       332.1       331.0       329.7    
        328.3       326.7       324.8       322.7       320.3    
  23    339.1       339.1       339.0       338.9       338.7       338.6       338.3       338.1       337.8       337.4    
        337.0       336.5       336.0       335.4       334.7       333.9       333.1       332.1       331.0       329.7    
        328.3       326.7       324.8       322.7       320.3    
  24    339.1       339.1       339.0       338.9       338.7       338.6       338.3       338.1       337.8       337.4    
        337.0       336.5       336.0       335.4       334.7       333.9       333.1       332.1       331.0       329.7    
        328.3       326.7       324.8       322.7       320.3    
  25    339.1       339.1       339.0       338.9       338.7       338.6       338.3       338.1       337.8       337.4    
        337.0       336.5       336.0       335.4       334.7       333.9       333.1       332.1       331.0       329.7    
        328.3       326.7       324.8       322.7       320.3    
1
              HEAD IN LAYER   3 AT END OF TIME STEP   3 IN STRESS PERIOD    2
  ---------------------------------------------------------------------------

            1           2           3           4           5           6           7           8           9          10
           11          12          13          14          15          16          17          18          19          20
           21          22          23          24          25
 ........................................................................................................................
   1    335.4       335.4       335.4       335.3       335.2       335.1       334.9       334.8       334.6       334.4    
        334.1       333.8       333.5       333.2       332.8       332.4       331.9       331.3       330.7       330.1    
        329.3       328.5       327.5       326.4       325.3    
   2    335.4       335.4       335.4       335.3       335.2       335.1       334.9       334.8       334.6       334.4    
        334.1       333.8       333.5       333.2       332.8       332.3       331.9       331.3       330.7       330.1    
        329.3       328.5       327.5       326.4       325.2    
   3    335.4       335.4       335.4       335.3       335.2       335.1       334.9       334.8       334.6       334.3    
        334.1       333.8       333.5       333.2       332.8       332.3       331.9       331.3       330.7       330.1    
        329.3       328.5       327.5       326.4       325.2    
   4    335.4       335.4       335.4       335.3       335.2       335.1       334.9       334.7       334.6       334.3    
        334.1       333.8       333.5       333.1       332.7       332.3       331.8       331.3       330.7       330.1    
        329.3       328.5       327.5       326.4       325.2    
   5    335.4       335.4       335.3       335.3       335.2       335.1       334.9       334.7       334.5       334.3    
        334.1       333.8       333.5       333.1       332.7       332.3       331.8       331.3       330.7       330.0    
        329.3       328.5       327.5       326.4       325.2    
   6    335.4       335.4       335.3       335.3       335.2       335.0       334.9       334.7       334.5       334.3    
        334.0       333.7       333.4       333.1       332.7       332.3       331.8       331.3       330.7       330.0    
        329.3       328.4       327.5       326.4       325.2    
   7    335.4       335.4       335.3       335.3       335.2       335.0       334.9       334.7       334.5       334.2    
        334.0       333.7       333.4       333.0       332.7       332.2       331.8       331.3       330.7       330.0    
        329.3       328.4       327.5       326.4       325.2    
   8    335.4       335.4       335.3       335.2       335.1       335.0       334.8       334.7       334.5       334.2    
        333.9       333.6       333.3       333.0       332.6       332.2       331.7       331.2       330.7       330.0    
        329.3       328.4       327.5       326.4       325.2    
   9    335.4       335.4       335.3       335.2       335.1       335.0       334.8       334.6       334.4       334.2    
        333.9       333.6       333.3       332.9       332.6       332.2       331.7       331.2       330.6       330.0    
        329.2       328.4       327.5       326.4       325.2    
  10    335.4       335.4       335.3       335.2       335.1       335.0       334.8       334.6       334.4       334.1    
        333.8       333.5       333.2       332.8       332.5       332.1       331.7       331.2       330.6       330.0    
        329.2       328.4       327.5       326.4       325.2    
  11    335.4       335.3       335.3       335.2       335.1       335.0       334.8       334.6       334.3       334.1    
        333.8       333.4       333.0       332.7       332.4       332.1       331.6       331.2       330.6       330.0    
        329.2       328.4       327.5       326.4       325.2    
  12    335.4       335.3       335.3       335.2       335.1       335.0       334.8       334.6       334.3       334.0    
        333.7       333.3       332.8       332.6       332.4       332.0       331.6       331.1       330.6       329.9    
        329.2       328.4       327.5       326.4       325.2    
  13    335.4       335.3       335.3       335.2       335.1       335.0       334.8       334.6       334.3       334.0    
        333.6       333.1       332.3       332.5       332.3       332.0       331.6       331.1       330.6       329.9    
        329.2       328.4       327.5       326.4       325.2    
  14    335.4       335.3       335.3       335.2       335.1       335.0       334.8       334.6       334.3       334.0    
        333.7       333.3       332.8       332.6       332.4       332.0       331.6       331.1       330.6       329.9    
        329.2       328.4       327.5       326.4       325.2    
  15    335.4       335.3       335.3       335.2       335.1       335.0       334.8       334.6       334.3       334.1    
        333.8       333.4       333.0       332.7       332.4       332.1       331.6       331.2       330.6       330.0    
        329.2       328.4       327.5       326.4       325.2    
  16    335.4       335.4       335.3       335.2       335.1       335.0       334.8       334.6       334.4       334.1    
        333.8       333.5       333.2       332.8       332.5       332.1       331.7       331.2       330.6       330.0    
        329.2       328.4       327.5       326.4       325.2    
  17    335.4       335.4       335.3       335.2       335.1       335.0       334.8       334.6       334.4       334.2    
        333.9       333.6       333.3       332.9       332.6       332.2       331.7       331.2       330.6       330.0    
        329.2       328.4       327.5       326.4       325.2    
  18    335.4       335.4       335.3       335.2       335.1       335.0       334.8       334.7       334.5       334.2    
        333.9       333.6       333.3       333.0       332.6       332.2       331.7       331.2       330.7       330.0    
        329.3       328.4       327.5       326.4       325.2    
  19    335.4       335.4       335.3       335.3       335.2       335.0       334.9       334.7       334.5       334.2    
        334.0       333.7       333.4       333.0       332.7       332.2       331.8       331.3       330.7       330.0    
        329.3       328.4       327.5       326.4       325.2    
  20    335.4       335.4       335.3       335.3       335.2       335.0       334.9       334.7       334.5       334.3    
        334.0       333.7       333.4       333.1       332.7       332.3       331.8       331.3       330.7       330.0    
        329.3       328.4       327.5       326.4       325.2    
  21    335.4       335.4       335.3       335.3       335.2       335.1       334.9       334.7       334.5       334.3    
        334.1       333.8       333.5       333.1       332.7       332.3       331.8       331.3       330.7       330.0    
        329.3       328.5       327.5       326.4       325.2    
  22    335.4       335.4       335.4       335.3       335.2       335.1       334.9       334.7       334.6       334.3    
        334.1       333.8       333.5       333.1       332.7       332.3       331.8       331.3       330.7       330.1    
        329.3       328.5       327.5       326.4       325.2    
  23    335.4       335.4       335.4       335.3       335.2       335.1       334.9       334.8       334.6       334.3    
        334.1       333.8       333.5       333.2       332.8       332.3       331.9       331.3       330.7       330.1    
        329.3       328.5       327.5       326.4       325.2    
  24    335.4       335.4       335.4       335.3       335.2       335.1       334.9       334.8       334.6       334.4    
        334.1       333.8       333.5       333.2       332.8       332.3       331.9       331.3       330.7       330.1    
        329.3       328.5       327.5       326.4       325.2    
  25    335.4       335.4       335.4       335.3       335.2       335.1       334.9       334.8       334.6       334.4    
        334.1       333.8       333.5       333.2       332.8       332.4       331.9       331.3       330.7       330.1    
        329.3       328.5       327.5       326.4       325.3    
1
              HEAD IN LAYER   4 AT END OF TIME STEP   3 IN STRESS PERIOD    2
  ---------------------------------------------------------------------------

            1           2           3           4           5           6           7           8           9          10
           11          12          13          14          15          16          17          18          19          20
           21          22          23          24          25
 ........................................................................................................................
   1    331.8       331.8       331.7       331.7       331.7       331.6       331.5       331.5       331.4       331.3    
        331.2       331.1       331.0       330.9       330.8       330.8       330.7       330.6       330.5       330.4    
        330.3       330.3       330.2       330.2       330.2    
   2    331.8       331.8       331.7       331.7       331.7       331.6       331.5       331.5       331.4       331.3    
        331.2       331.1       331.0       330.9       330.8       330.7       330.7       330.6       330.5       330.4    
        330.3       330.3       330.2       330.2       330.1    
   3    331.8       331.8       331.7       331.7       331.6       331.6       331.5       331.5       331.4       331.3    
        331.2       331.1       331.0       330.9       330.8       330.7       330.6       330.6       330.5       330.4    
        330.3       330.3       330.2       330.2       330.1    
   4    331.8       331.7       331.7       331.7       331.6       331.6       331.5       331.4       331.3       331.3    
        331.2       331.1       331.0       330.9       330.8       330.7       330.6       330.5       330.5       330.4    
        330.3       330.3       330.2       330.2       330.1    
   5    331.8       331.7       331.7       331.7       331.6       331.6       331.5       331.4       331.3       331.2    
        331.1       331.0       330.9       330.8       330.8       330.7       330.6       330.5       330.4       330.4    
        330.3       330.2       330.2       330.1       330.1    
   6    331.7       331.7       331.7       331.7       331.6       331.5       331.5       331.4       331.3       331.2    
        331.1       331.0       330.9       330.8       330.7       330.6       330.6       330.5       330.4       330.3    
        330.3       330.2       330.2       330.1       330.1    
   7    331.7       331.7       331.7       331.6       331.6       331.5       331.4       331.3       331.2       331.1    
        331.0       330.9       330.8       330.7       330.6       330.6       330.5       330.4       330.4       330.3    
        330.3       330.2       330.2       330.1       330.1    
   8    331.7       331.7       331.7       331.6       331.6       331.5       331.4       331.3       331.2       331.1    
        330.9       330.8       330.7       330.6       330.6       330.5       330.5       330.4       330.3       330.3    
        330.2       330.2       330.1       330.1       330.1    
   9    331.7       331.7       331.7       331.6       331.5       331.5       331.4       331.2       331.1       331.0    
        330.8       330.7       330.6       330.5       330.5       330.4       330.4       330.4       330.3       330.3    
        330.2       330.2       330.1       330.1       330.1    
  10    331.7       331.7       331.6       331.6       331.5       331.4       331.3       331.2       331.1       330.9    
        330.7       330.6       330.4       330.4       330.4       330.3       330.3       330.3       330.3       330.2    
        330.2       330.2       330.1       330.1       330.1    
  11    331.7       331.7       331.6       331.6       331.5       331.4       331.3       331.2       331.0       330.8    
        330.6       330.4       330.2       330.2       330.2       330.3       330.3       330.3       330.2       330.2    
        330.2       330.1       330.1       330.1       330.1    
  12    331.7       331.7       331.6       331.6       331.5       331.4       331.3       331.1       331.0       330.7    
        330.5       330.1       329.8       329.9       330.1       330.2       330.2       330.2       330.2       330.2    
        330.2       330.1       330.1       330.1       330.1    
  13    331.7       331.7       331.6       331.6       331.5       331.4       331.3       331.1       330.9       330.7    
        330.4       329.8       328.7       329.7       330.0       330.1       330.2       330.2       330.2       330.2    
        330.2       330.1       330.1       330.1       330.1    
  14    331.7       331.7       331.6       331.6       331.5       331.4       331.3       331.1       331.0       330.7    
        330.5       330.1       329.8       329.9       330.1       330.2       330.2       330.2       330.2       330.2    
        330.2       330.1       330.1       330.1       330.1    
  15    331.7       331.7       331.6       331.6       331.5       331.4       331.3       331.2       331.0       330.8    
        330.6       330.4       330.2       330.2       330.2       330.3       330.3       330.3       330.2       330.2    
        330.2       330.1       330.1       330.1       330.1    
  16    331.7       331.7       331.6       331.6       331.5       331.4       331.3       331.2       331.1       330.9    
        330.7       330.6       330.4       330.4       330.4       330.3       330.3       330.3       330.3       330.2    
        330.2       330.2       330.1       330.1       330.1    
  17    331.7       331.7       331.7       331.6       331.5       331.5       331.4       331.2       331.1       331.0    
        330.8       330.7       330.6       330.5       330.5       330.4       330.4       330.4       330.3       330.3    
        330.2       330.2       330.1       330.1       330.1    
  18    331.7       331.7       331.7       331.6       331.6       331.5       331.4       331.3       331.2       331.1    
        330.9       330.8       330.7       330.6       330.6       330.5       330.5       330.4       330.3       330.3    
        330.2       330.2       330.1       330.1       330.1    
  19    331.7       331.7       331.7       331.6       331.6       331.5       331.4       331.3       331.2       331.1    
        331.0       330.9       330.8       330.7       330.6       330.6       330.5       330.4       330.4       330.3    
        330.3       330.2       330.2       330.1       330.1    
  20    331.7       331.7       331.7       331.7       331.6       331.5       331.5       331.4       331.3       331.2    
        331.1       331.0       330.9       330.8       330.7       330.6       330.6       330.5       330.4       330.3    
        330.3       330.2       330.2       330.1       330.1    
  21    331.8       331.7       331.7       331.7       331.6       331.6       331.5       331.4       331.3       331.2    
        331.1       331.0       330.9       330.8       330.8       330.7       330.6       330.5       330.4       330.4    
        330.3       330.2       330.2       330.1       330.1    
  22    331.8       331.7       331.7       331.7       331.6       331.6       331.5       331.4       331.3       331.3    
        331.2       331.1       331.0       330.9       330.8       330.7       330.6       330.5       330.5       330.4    
        330.3       330.3       330.2       330.2       330.1    
  23    331.8       331.8       331.7       331.7       331.6       331.6       331.5       331.5       331.4       331.3    
        331.2       331.1       331.0       330.9       330.8       330.7       330.6       330.6       330.5       330.4    
        330.3       330.3       330.2       330.2       330.1    
  24    331.8       331.8       331.7       331.7       331.7       331.6       331.5       331.5       331.4       331.3    
        331.2       331.1       331.0       330.9       330.8       330.7       330.7       330.6       330.5       330.4    
        330.3       330.3       330.2       330.2       330.1    
  25    331.8       331.8       331.7       331.7       331.7       331.6       331.5       331.5       331.4       331.3    
        331.2       331.1       331.0       330.9       330.8       330.8       330.7       330.6       330.5       330.4    
        330.3       330.3       330.2       330.2       330.2    
1
              HEAD IN LAYER   5 AT END OF TIME STEP   3 IN STRESS PERIOD    2
  ---------------------------------------------------------------------------

            1           2           3           4           5           6           7           8           9          10
           11          12          13          14          15          16          17          18          19          20
           21          22          23          24          25
 ........................................................................................................................
   1    331.8       331.8       331.7       331.7       331.7       331.6       331.5       331.5       331.4       331.3    
        331.2       331.1       331.0       330.9       330.8       330.8       330.7       330.6       330.5       330.4    
        330.3       330.3       330.2       330.2       330.2    
   2    331.8       331.8       331.7       331.7       331.6       331.6       331.5       331.5       331.4       331.3    
        331.2       331.1       331.0       330.9       330.8       330.7       330.7       330.6       330.5       330.4    
        330.3       330.3       330.2       330.2       330.2    
   3    331.8       331.7       331.7       331.7       331.6       331.6       331.5       331.4       331.4       331.3    
        331.2       331.1       331.0       330.9       330.8       330.7       330.6       330.6       330.5       330.4    
        330.3       330.3       330.2       330.2       330.2    
   4    331.8       331.7       331.7       331.7       331.6       331.6       331.5       331.4       331.3       331.3    
        331.2       331.1       331.0       330.9       330.8       330.7       330.6       330.5       330.5       330.4    
        330.3       330.3       330.2       330.2       330.1    
   5    331.7       331.7       331.7       331.7       331.6       331.6       331.5       331.4       331.3       331.2    
        331.1       331.0       330.9       330.8       330.8       330.7       330.6       330.5       330.4       330.4    
        330.3       330.2       330.2       330.2       330.1    
   6    331.7       331.7       331.7       331.6       331.6       331.5       331.5       331.4       331.3       331.2    
        331.1       331.0       330.9       330.8       330.7       330.6       330.6       330.5       330.4       330.3    
        330.3       330.2       330.2       330.1       330.1    
   7    331.7       331.7       331.7       331.6       331.6       331.5       331.4       331.3       331.2       331.1    
        331.0       330.9       330.8       330.7       330.6       330.6       330.5       330.4       330.4       330.3    
        330.3       330.2       330.2       330.1       330.1    
   8    331.7       331.7       331.7       331.6       331.6       331.5       331.4       331.3       331.2       331.1    
        330.9       330.8       330.7       330.6       330.6       330.5       330.5       330.4       330.3       330.3    
        330.2       330.2       330.1       330.1       330.1    
   9    331.7       331.7       331.6       331.6       331.5       331.4       331.4       331.2       331.1       331.0    
        330.8       330.7       330.6       330.5       330.5       330.4       330.4       330.4       330.3       330.3    
        330.2       330.2       330.1       330.1       330.1    
  10    331.7       331.7       331.6       331.6       331.5       331.4       331.3       331.2       331.1       330.9    
        330.7       330.6       330.4       330.4       330.4       330.3       330.3       330.3       330.3       330.2    
        330.2       330.2       330.1       330.1       330.1    
  11    331.7       331.7       331.6       331.6       331.5       331.4       331.3       331.2       331.0       330.8    
        330.6       330.4       330.2       330.2       330.2       330.3       330.3       330.3       330.2       330.2    
        330.2       330.1       330.1       330.1       330.1    
  12    331.7       331.7       331.6       331.6       331.5       331.4       331.3       331.1       330.9       330.7    
        330.5       330.1       329.8       329.9       330.1       330.2       330.2       330.2       330.2       330.2    
        330.2       330.1       330.1       330.1       330.1    
  13    331.7       331.6       331.6       331.6       331.5       331.4       331.3       331.1       330.9       330.7    
        330.4       329.9       329.0       329.7       330.0       330.1       330.2       330.2       330.2       330.2    
        330.2       330.1       330.1       330.1       330.1    
  14    331.7       331.7       331.6       331.6       331.5       331.4       331.3       331.1       330.9       330.7    
        330.5       330.1       329.8       329.9       330.1       330.2       330.2       330.2       330.2       330.2    
        330.2       330.1       330.1       330.1       330.1    
  15    331.7       331.7       331.6       331.6       331.5       331.4       331.3       331.2       331.0       330.8    
        330.6       330.4       330.2       330.2       330.2       330.3       330.3       330.3       330.2       330.2    
        330.2       330.1       330.1       330.1       330.1    
  16    331.7       331.7       331.6       331.6       331.5       331.4       331.3       331.2       331.1       330.9    
        330.7       330.6       330.4       330.4       330.4       330.3       330.3       330.3       330.3       330.2    
        330.2       330.2       330.1       330.1       330.1    
  17    331.7       331.7       331.6       331.6       331.5       331.4       331.4       331.2       331.1       331.0    
        330.8       330.7       330.6       330.5       330.5       330.4       330.4       330.4       330.3       330.3    
        330.2       330.2       330.1       330.1       330.1    
  18    331.7       331.7       331.7       331.6       331.6       331.5       331.4       331.3       331.2       331.1    
        330.9       330.8       330.7       330.6       330.6       330.5       330.5       330.4       330.3       330.3    
        330.2       330.2       330.1       330.1       330.1    
  19    331.7       331.7       331.7       331.6       331.6       331.5       331.4       331.3       331.2       331.1    
        331.0       330.9       330.8       330.7       330.6       330.6       330.5       330.4       330.4       330.3    
        330.3       330.2       330.2       330.1       330.1    
  20    331.7       331.7       331.7       331.6       331.6       331.5       331.5       331.4       331.3       331.2    
        331.1       331.0       330.9       330.8       330.7       330.6       330.6       330.5       330.4       330.3    
        330.3       330.2       330.2       330.1       330.1    
  21    331.7       331.7       331.7       331.7       331.6       331.6       331.5       331.4       331.3       331.2    
        331.1       331.0       330.9       330.8       330.8       330.7       330.6       330.5       330.4       330.4    
        330.3       330.2       330.2       330.2       330.1    
  22    331.8       331.7       331.7       331.7       331.6       331.6       331.5       331.4       331.3       331.3    
        331.2       331.1       331.0       330.9       330.8       330.7       330.6       330.5       330.5       330.4    
        330.3       330.3       330.2       330.2       330.1    
  23    331.8       331.7       331.7       331.7       331.6       331.6       331.5       331.4       331.4       331.3    
        331.2       331.1       331.0       330.9       330.8       330.7       330.6       330.6       330.5       330.4    
        330.3       330.3       330.2       330.2       330.2    
  24    331.8       331.8       331.7       331.7       331.6       331.6       331.5       331.5       331.4       331.3    
        331.2       331.1       331.0       330.9       330.8       330.7       330.7       330.6       330.5       330.4    
        330.3       330.3       330.2       330.2       330.2    
  25    331.8       331.8       331.7       331.7       331.7       331.6       331.5       331.5       331.4       331.3    
        331.2       331.1       331.0       330.9       330.8       330.8       330.7       330.6       330.5       330.4    
        330.3       330.3       330.2       330.2       330.2    

 HEAD WILL BE SAVED ON UNIT   50 AT END OF TIME STEP    3, STRESS PERIOD    2



         TIME SUMMARY AT END OF TIME STEP    3 IN STRESS PERIOD    2
                    SECONDS     MINUTES      HOURS       DAYS        YEARS
                    -----------------------------------------------------------
   TIME STEP LENGTH 1.71534E+07 2.85891E+05  4764.8      198.54     0.54356    
 STRESS PERIOD TIME 3.62128E+07 6.03547E+05  10059.      419.13      1.1475    
         TOTAL TIME 1.73162E+10 2.88604E+08 4.81006E+06 2.00419E+05  548.72    
1
 
 SOLVING FOR HEAD 
     1 CALLS TO PCG ROUTINE FOR TIME STEP   4 IN STRESS PERIOD    2
     1 TOTAL ITERATIONS

 MAXIMUM HEAD CHANGE FOR EACH ITERATION (1 INDICATES THE FIRST INNER ITERATION):

    HEAD CHANGE    HEAD CHANGE    HEAD CHANGE    HEAD CHANGE    HEAD CHANGE 
   LAYER,ROW,COL  LAYER,ROW,COL  LAYER,ROW,COL  LAYER,ROW,COL  LAYER,ROW,COL
 ---------------------------------------------------------------------------
  1 -0.1016E-04
   (  3, 13, 13)

 MAXIMUM RESIDUAL FOR EACH ITERATION (1 INDICATES THE FIRST INNER ITERATION):

    RESIDUAL       RESIDUAL       RESIDUAL       RESIDUAL       RESIDUAL    
   LAYER,ROW,COL  LAYER,ROW,COL  LAYER,ROW,COL  LAYER,ROW,COL  LAYER,ROW,COL
 ---------------------------------------------------------------------------
  1 -0.6503    
   (  4, 13, 13)



 OUTPUT CONTROL FOR STRESS PERIOD    2   TIME STEP    4
    SAVE BUDGET
    PRINT HEAD FOR ALL LAYERS
    SAVE HEAD FOR ALL LAYERS
 UBDSV1 SAVING "         STORAGE" ON UNIT  53 AT TIME STEP  4, STRESS PERIOD   2
 UBDSV2 SAVING "   CONSTANT HEAD" ON UNIT  53 AT TIME STEP  4, STRESS PERIOD   2
 UBDSV1 SAVING "FLOW RIGHT FACE " ON UNIT  53 AT TIME STEP  4, STRESS PERIOD   2
 UBDSV1 SAVING "FLOW FRONT FACE " ON UNIT  53 AT TIME STEP  4, STRESS PERIOD   2
 UBDSV1 SAVING "FLOW LOWER FACE " ON UNIT  53 AT TIME STEP  4, STRESS PERIOD   2
 UBDSV4 SAVING "   RIVER LEAKAGE" ON UNIT  53 AT TIME STEP  4, STRESS PERIOD   2
 UBDSV3 SAVING "        RECHARGE" ON UNIT  53 AT TIME STEP  4, STRESS PERIOD   2
1
              HEAD IN LAYER   1 AT END OF TIME STEP   4 IN STRESS PERIOD    2
  ---------------------------------------------------------------------------

            1           2           3           4           5           6           7           8           9          10
           11          12          13          14          15          16          17          18          19          20
           21          22          23          24          25
 ........................................................................................................................
   1    339.1       339.1       339.0       338.9       338.8       338.6       338.4       338.1       337.8       337.4    
        337.0       336.6       336.0       335.4       334.7       334.0       333.1       332.1       331.0       329.7    
        328.3       326.7       324.8       322.7       320.1    
   2    339.1       339.1       339.0       338.9       338.8       338.6       338.4       338.1       337.8       337.4    
        337.0       336.5       336.0       335.4       334.7       334.0       333.1       332.1       331.0       329.7    
        328.3       326.7       324.8       322.7       320.1    
   3    339.1       339.1       339.0       338.9       338.8       338.6       338.4       338.1       337.8       337.4    
        337.0       336.5       336.0       335.4       334.7       334.0       333.1       332.1       331.0       329.7    
        328.3       326.7       324.8       322.7       320.1    
   4    339.1       339.1       339.0       338.9       338.8       338.6       338.4       338.1       337.8       337.4    
        337.0       336.5       336.0       335.4       334.7       334.0       333.1       332.1       331.0       329.7    
        328.3       326.7       324.8       322.7       320.1    
   5    339.1       339.1       339.0       338.9       338.8       338.6       338.3       338.1       337.8       337.4    
        337.0       336.5       336.0       335.4       334.7       333.9       333.1       332.1       331.0       329.7    
        328.3       326.7       324.8       322.7       320.1    
   6    339.1       339.1       339.0       338.9       338.8       338.6       338.3       338.1       337.8       337.4    
        337.0       336.5       336.0       335.4       334.7       333.9       333.1       332.1       331.0       329.7    
        328.3       326.7       324.8       322.7       320.1    
   7    339.1       339.1       339.0       338.9       338.7       338.6       338.3       338.1       337.8       337.4    
        337.0       336.5       336.0       335.4       334.7       333.9       333.1       332.1       331.0       329.7    
        328.3       326.7       324.8       322.7       320.1    
   8    339.1       339.1       339.0       338.9       338.7       338.6       338.3       338.1       337.7       337.4    
        337.0       336.5       336.0       335.4       334.7       333.9       333.1       332.1       331.0       329.7    
        328.3       326.7       324.8       322.7       320.1    
   9    339.1       339.1       339.0       338.9       338.7       338.5       338.3       338.0       337.7       337.4    
        337.0       336.5       335.9       335.3       334.7       333.9       333.0       332.1       331.0       329.7    
        328.3       326.7       324.8       322.7       320.1    
  10    339.1       339.1       339.0       338.9       338.7       338.5       338.3       338.0       337.7       337.4    
        336.9       336.5       335.9       335.3       334.7       333.9       333.0       332.1       331.0       329.7    
        328.3       326.7       324.8       322.7       320.1    
  11    339.1       339.1       339.0       338.9       338.7       338.5       338.3       338.0       337.7       337.3    
        336.9       336.5       335.9       335.3       334.6       333.9       333.0       332.1       331.0       329.7    
        328.3       326.7       324.8       322.7       320.1    
  12    339.1       339.1       339.0       338.9       338.7       338.5       338.3       338.0       337.7       337.3    
        336.9       336.4       335.9       335.3       334.6       333.9       333.0       332.0       331.0       329.7    
        328.3       326.7       324.8       322.7       320.1    
  13    339.1       339.1       339.0       338.9       338.7       338.5       338.3       338.0       337.7       337.3    
        336.9       336.4       335.9       335.3       334.6       333.9       333.0       332.0       330.9       329.7    
        328.3       326.7       324.8       322.7       320.1    
  14    339.1       339.1       339.0       338.9       338.7       338.5       338.3       338.0       337.7       337.3    
        336.9       336.4       335.9       335.3       334.6       333.9       333.0       332.0       331.0       329.7    
        328.3       326.7       324.8       322.7       320.1    
  15    339.1       339.1       339.0       338.9       338.7       338.5       338.3       338.0       337.7       337.3    
        336.9       336.5       335.9       335.3       334.6       333.9       333.0       332.1       331.0       329.7    
        328.3       326.7       324.8       322.7       320.1    
  16    339.1       339.1       339.0       338.9       338.7       338.5       338.3       338.0       337.7       337.4    
        336.9       336.5       335.9       335.3       334.7       333.9       333.0       332.1       331.0       329.7    
        328.3       326.7       324.8       322.7       320.1    
  17    339.1       339.1       339.0       338.9       338.7       338.5       338.3       338.0       337.7       337.4    
        337.0       336.5       335.9       335.3       334.7       333.9       333.0       332.1       331.0       329.7    
        328.3       326.7       324.8       322.7       320.1    
  18    339.1       339.1       339.0       338.9       338.7       338.6       338.3       338.1       337.7       337.4    
        337.0       336.5       336.0       335.4       334.7       333.9       333.1       332.1       331.0       329.7    
        328.3       326.7       324.8       322.7       320.1    
  19    339.1       339.1       339.0       338.9       338.7       338.6       338.3       338.1       337.8       337.4    
        337.0       336.5       336.0       335.4       334.7       333.9       333.1       332.1       331.0       329.7    
        328.3       326.7       324.8       322.7       320.1    
  20    339.1       339.1       339.0       338.9       338.8       338.6       338.3       338.1       337.8       337.4    
        337.0       336.5       336.0       335.4       334.7       333.9       333.1       332.1       331.0       329.7    
        328.3       326.7       324.8       322.7       320.1    
  21    339.1       339.1       339.0       338.9       338.8       338.6       338.3       338.1       337.8       337.4    
        337.0       336.5       336.0       335.4       334.7       333.9       333.1       332.1       331.0       329.7    
        328.3       326.7       324.8       322.7       320.1    
  22    339.1       339.1       339.0       338.9       338.8       338.6       338.4       338.1       337.8       337.4    
        337.0       336.5       336.0       335.4       334.7       334.0       333.1       332.1       331.0       329.7    
        328.3       326.7       324.8       322.7       320.1    
  23    339.1       339.1       339.0       338.9       338.8       338.6       338.4       338.1       337.8       337.4    
        337.0       336.5       336.0       335.4       334.7       334.0       333.1       332.1       331.0       329.7    
        328.3       326.7       324.8       322.7       320.1    
  24    339.1       339.1       339.0       338.9       338.8       338.6       338.4       338.1       337.8       337.4    
        337.0       336.5       336.0       335.4       334.7       334.0       333.1       332.1       331.0       329.7    
        328.3       326.7       324.8       322.7       320.1    
  25    339.1       339.1       339.0       338.9       338.8       338.6       338.4       338.1       337.8       337.4    
        337.0       336.6       336.0       335.4       334.7       334.0       333.1       332.1       331.0       329.7    
        328.3       326.7       324.8       322.7       320.1    
1
              HEAD IN LAYER   2 AT END OF TIME STEP   4 IN STRESS PERIOD    2
  ---------------------------------------------------------------------------

            1           2           3           4           5           6           7           8           9          10
           11          12          13          14          15          16          17          18          19          20
           21          22          23          24          25
 ........................................................................................................................
   1    339.1       339.1       339.0       338.9       338.7       338.6       338.3       338.1       337.8       337.4    
        337.0       336.5       336.0       335.4       334.7       333.9       333.1       332.1       331.0       329.7    
        328.3       326.7       324.8       322.7       320.3    
   2    339.1       339.1       339.0       338.9       338.7       338.6       338.3       338.1       337.8       337.4    
        337.0       336.5       336.0       335.4       334.7       333.9       333.1       332.1       331.0       329.7    
        328.3       326.7       324.8       322.7       320.3    
   3    339.1       339.1       339.0       338.9       338.7       338.6       338.3       338.1       337.8       337.4    
        337.0       336.5       336.0       335.4       334.7       333.9       333.1       332.1       331.0       329.7    
        328.3       326.7       324.8       322.7       320.3    
   4    339.1       339.1       339.0       338.9       338.7       338.6       338.3       338.1       337.8       337.4    
        337.0       336.5       336.0       335.4       334.7       333.9       333.1       332.1       331.0       329.7    
        328.3       326.7       324.8       322.7       320.3    
   5    339.1       339.1       339.0       338.9       338.7       338.5       338.3       338.1       337.7       337.4    
        337.0       336.5       336.0       335.4       334.7       333.9       333.1       332.1       331.0       329.7    
        328.3       326.7       324.8       322.7       320.3    
   6    339.1       339.1       339.0       338.9       338.7       338.5       338.3       338.1       337.7       337.4    
        337.0       336.5       336.0       335.4       334.7       333.9       333.1       332.1       331.0       329.7    
        328.3       326.7       324.8       322.7       320.3    
   7    339.1       339.0       339.0       338.9       338.7       338.5       338.3       338.0       337.7       337.4    
        337.0       336.5       336.0       335.4       334.7       333.9       333.0       332.1       331.0       329.7    
        328.3       326.7       324.8       322.7       320.3    
   8    339.1       339.0       339.0       338.9       338.7       338.5       338.3       338.0       337.7       337.4    
        336.9       336.5       335.9       335.3       334.7       333.9       333.0       332.1       331.0       329.7    
        328.3       326.7       324.8       322.7       320.3    
   9    339.1       339.0       339.0       338.9       338.7       338.5       338.3       338.0       337.7       337.3    
        336.9       336.5       335.9       335.3       334.6       333.9       333.0       332.1       331.0       329.7    
        328.3       326.7       324.8       322.7       320.3    
  10    339.1       339.0       339.0       338.9       338.7       338.5       338.3       338.0       337.7       337.3    
        336.9       336.4       335.9       335.3       334.6       333.9       333.0       332.0       330.9       329.7    
        328.3       326.7       324.8       322.7       320.3    
  11    339.1       339.0       339.0       338.8       338.7       338.5       338.3       338.0       337.7       337.3    
        336.9       336.4       335.9       335.3       334.6       333.9       333.0       332.0       330.9       329.7    
        328.3       326.7       324.8       322.7       320.3    
  12    339.1       339.0       339.0       338.8       338.7       338.5       338.3       338.0       337.7       337.3    
        336.9       336.4       335.9       335.3       334.6       333.9       333.0       332.0       330.9       329.7    
        328.3       326.7       324.8       322.7       320.3    
  13    339.1       339.0       339.0       338.8       338.7       338.5       338.3       338.0       337.7       337.3    
        336.9       336.4       335.9       335.3       334.6       333.9       333.0       332.0       330.9       329.7    
        328.3       326.7       324.8       322.7       320.3    
  14    339.1       339.0       339.0       338.8       338.7       338.5       338.3       338.0       337.7       337.3    
        336.9       336.4       335.9       335.3       334.6       333.9       333.0       332.0       330.9       329.7    
        328.3       326.7       324.8       322.7       320.3    
  15    339.1       339.0       339.0       338.8       338.7       338.5       338.3       338.0       337.7       337.3    
        336.9       336.4       335.9       335.3       334.6       333.9       333.0       332.0       330.9       329.7    
        328.3       326.7       324.8       322.7       320.3    
  16    339.1       339.0       339.0       338.9       338.7       338.5       338.3       338.0       337.7       337.3    
        336.9       336.4       335.9       335.3       334.6       333.9       333.0       332.0       330.9       329.7    
        328.3       326.7       324.8       322.7       320.3    
  17    339.1       339.0       339.0       338.9       338.7       338.5       338.3       338.0       337.7       337.3    
        336.9       336.5       335.9       335.3       334.6       333.9       333.0       332.1       331.0       329.7    
        328.3       326.7       324.8       322.7       320.3    
  18    339.1       339.0       339.0       338.9       338.7       338.5       338.3       338.0       337.7       337.4    
        336.9       336.5       335.9       335.3       334.7       333.9       333.0       332.1       331.0       329.7    
        328.3       326.7       324.8       322.7       320.3    
  19    339.1       339.0       339.0       338.9       338.7       338.5       338.3       338.0       337.7       337.4    
        337.0       336.5       336.0       335.4       334.7       333.9       333.0       332.1       331.0       329.7    
        328.3       326.7       324.8       322.7       320.3    
  20    339.1       339.1       339.0       338.9       338.7       338.5       338.3       338.1       337.7       337.4    
        337.0       336.5       336.0       335.4       334.7       333.9       333.1       332.1       331.0       329.7    
        328.3       326.7       324.8       322.7       320.3    
  21    339.1       339.1       339.0       338.9       338.7       338.5       338.3       338.1       337.7       337.4    
        337.0       336.5       336.0       335.4       334.7       333.9       333.1       332.1       331.0       329.7    
        328.3       326.7       324.8       322.7       320.3    
  22    339.1       339.1       339.0       338.9       338.7       338.6       338.3       338.1       337.8       337.4    
        337.0       336.5       336.0       335.4       334.7       333.9       333.1       332.1       331.0       329.7    
        328.3       326.7       324.8       322.7       320.3    
  23    339.1       339.1       339.0       338.9       338.7       338.6       338.3       338.1       337.8       337.4    
        337.0       336.5       336.0       335.4       334.7       333.9       333.1       332.1       331.0       329.7    
        328.3       326.7       324.8       322.7       320.3    
  24    339.1       339.1       339.0       338.9       338.7       338.6       338.3       338.1       337.8       337.4    
        337.0       336.5       336.0       335.4       334.7       333.9       333.1       332.1       331.0       329.7    
        328.3       326.7       324.8       322.7       320.3    
  25    339.1       339.1       339.0       338.9       338.7       338.6       338.3       338.1       337.8       337.4    
        337.0       336.5       336.0       335.4       334.7       333.9       333.1       332.1       331.0       329.7    
        328.3       326.7       324.8       322.7       320.3    
1
              HEAD IN LAYER   3 AT END OF TIME STEP   4 IN STRESS PERIOD    2
  ---------------------------------------------------------------------------

            1           2           3           4           5           6           7           8           9          10
           11          12          13          14          15          16          17          18          19          20
           21          22          23          24          25
 ........................................................................................................................
   1    335.4       335.4       335.4       335.3       335.2       335.1       334.9       334.8       334.6       334.4    
        334.1       333.8       333.5       333.2       332.8       332.4       331.9       331.3       330.7       330.1    
        329.3       328.5       327.5       326.4       325.3    
   2    335.4       335.4       335.4       335.3       335.2       335.1       334.9       334.8       334.6       334.4    
        334.1       333.8       333.5       333.2       332.8       332.3       331.9       331.3       330.7       330.1    
        329.3       328.5       327.5       326.4       325.2    
   3    335.4       335.4       335.4       335.3       335.2       335.1       334.9       334.8       334.6       334.3    
        334.1       333.8       333.5       333.2       332.8       332.3       331.9       331.3       330.7       330.1    
        329.3       328.5       327.5       326.4       325.2    
   4    335.4       335.4       335.4       335.3       335.2       335.1       334.9       334.7       334.6       334.3    
        334.1       333.8       333.5       333.1       332.7       332.3       331.8       331.3       330.7       330.1    
        329.3       328.5       327.5       326.4       325.2    
   5    335.4       335.4       335.3       335.3       335.2       335.1       334.9       334.7       334.5       334.3    
        334.1       333.8       333.5       333.1       332.7       332.3       331.8       331.3       330.7       330.0    
        329.3       328.5       327.5       326.4       325.2    
   6    335.4       335.4       335.3       335.3       335.2       335.0       334.9       334.7       334.5       334.3    
        334.0       333.7       333.4       333.1       332.7       332.3       331.8       331.3       330.7       330.0    
        329.3       328.4       327.5       326.4       325.2    
   7    335.4       335.4       335.3       335.3       335.2       335.0       334.9       334.7       334.5       334.2    
        334.0       333.7       333.4       333.0       332.7       332.2       331.8       331.3       330.7       330.0    
        329.3       328.4       327.5       326.4       325.2    
   8    335.4       335.4       335.3       335.2       335.1       335.0       334.8       334.7       334.5       334.2    
        333.9       333.6       333.3       333.0       332.6       332.2       331.7       331.2       330.7       330.0    
        329.3       328.4       327.5       326.4       325.2    
   9    335.4       335.4       335.3       335.2       335.1       335.0       334.8       334.6       334.4       334.2    
        333.9       333.6       333.3       332.9       332.6       332.2       331.7       331.2       330.6       330.0    
        329.2       328.4       327.5       326.4       325.2    
  10    335.4       335.4       335.3       335.2       335.1       335.0       334.8       334.6       334.4       334.1    
        333.8       333.5       333.2       332.8       332.5       332.1       331.7       331.2       330.6       330.0    
        329.2       328.4       327.5       326.4       325.2    
  11    335.4       335.3       335.3       335.2       335.1       335.0       334.8       334.6       334.3       334.1    
        333.8       333.4       333.0       332.7       332.4       332.1       331.6       331.2       330.6       330.0    
        329.2       328.4       327.5       326.4       325.2    
  12    335.4       335.3       335.3       335.2       335.1       335.0       334.8       334.6       334.3       334.0    
        333.7       333.3       332.8       332.6       332.4       332.0       331.6       331.1       330.6       329.9    
        329.2       328.4       327.5       326.4       325.2    
  13    335.4       335.3       335.3       335.2       335.1       335.0       334.8       334.6       334.3       334.0    
        333.6       333.1       332.3       332.5       332.3       332.0       331.6       331.1       330.6       329.9    
        329.2       328.4       327.5       326.4       325.2    
  14    335.4       335.3       335.3       335.2       335.1       335.0       334.8       334.6       334.3       334.0    
        333.7       333.3       332.8       332.6       332.4       332.0       331.6       331.1       330.6       329.9    
        329.2       328.4       327.5       326.4       325.2    
  15    335.4       335.3       335.3       335.2       335.1       335.0       334.8       334.6       334.3       334.1    
        333.8       333.4       333.0       332.7       332.4       332.1       331.6       331.2       330.6       330.0    
        329.2       328.4       327.5       326.4       325.2    
  16    335.4       335.4       335.3       335.2       335.1       335.0       334.8       334.6       334.4       334.1    
        333.8       333.5       333.2       332.8       332.5       332.1       331.7       331.2       330.6       330.0    
        329.2       328.4       327.5       326.4       325.2    
  17    335.4       335.4       335.3       335.2       335.1       335.0       334.8       334.6       334.4       334.2    
        333.9       333.6       333.3       332.9       332.6       332.2       331.7       331.2       330.6       330.0    
        329.2       328.4       327.5       326.4       325.2    
  18    335.4       335.4       335.3       335.2       335.1       335.0       334.8       334.7       334.5       334.2    
        333.9       333.6       333.3       333.0       332.6       332.2       331.7       331.2       330.7       330.0    
        329.3       328.4       327.5       326.4       325.2    
  19    335.4       335.4       335.3       335.3       335.2       335.0       334.9       334.7       334.5       334.2    
        334.0       333.7       333.4       333.0       332.7       332.2       331.8       331.3       330.7       330.0    
        329.3       328.4       327.5       326.4       325.2    
  20    335.4       335.4       335.3       335.3       335.2       335.0       334.9       334.7       334.5       334.3    
        334.0       333.7       333.4       333.1       332.7       332.3       331.8       331.3       330.7       330.0    
        329.3       328.4       327.5       326.4       325.2    
  21    335.4       335.4       335.3       335.3       335.2       335.1       334.9       334.7       334.5       334.3    
        334.1       333.8       333.5       333.1       332.7       332.3       331.8       331.3       330.7       330.0    
        329.3       328.5       327.5       326.4       325.2    
  22    335.4       335.4       335.4       335.3       335.2       335.1       334.9       334.7       334.6       334.3    
        334.1       333.8       333.5       333.1       332.7       332.3       331.8       331.3       330.7       330.1    
        329.3       328.5       327.5       326.4       325.2    
  23    335.4       335.4       335.4       335.3       335.2       335.1       334.9       334.8       334.6       334.3    
        334.1       333.8       333.5       333.2       332.8       332.3       331.9       331.3       330.7       330.1    
        329.3       328.5       327.5       326.4       325.2    
  24    335.4       335.4       335.4       335.3       335.2       335.1       334.9       334.8       334.6       334.4    
        334.1       333.8       333.5       333.2       332.8       332.3       331.9       331.3       330.7       330.1    
        329.3       328.5       327.5       326.4       325.2    
  25    335.4       335.4       335.4       335.3       335.2       335.1       334.9       334.8       334.6       334.4    
        334.1       333.8       333.5       333.2       332.8       332.4       331.9       331.3       330.7       330.1    
        329.3       328.5       327.5       326.4       325.3    
1
              HEAD IN LAYER   4 AT END OF TIME STEP   4 IN STRESS PERIOD    2
  ---------------------------------------------------------------------------

            1           2           3           4           5           6           7           8           9          10
           11          12          13          14          15          16          17          18          19          20
           21          22          23          24          25
 ........................................................................................................................
   1    331.8       331.8       331.7       331.7       331.7       331.6       331.5       331.5       331.4       331.3    
        331.2       331.1       331.0       330.9       330.8       330.8       330.7       330.6       330.5       330.4    
        330.3       330.3       330.2       330.2       330.2    
   2    331.8       331.8       331.7       331.7       331.7       331.6       331.5       331.5       331.4       331.3    
        331.2       331.1       331.0       330.9       330.8       330.7       330.7       330.6       330.5       330.4    
        330.3       330.3       330.2       330.2       330.1    
   3    331.8       331.8       331.7       331.7       331.6       331.6       331.5       331.5       331.4       331.3    
        331.2       331.1       331.0       330.9       330.8       330.7       330.6       330.6       330.5       330.4    
        330.3       330.3       330.2       330.2       330.1    
   4    331.8       331.7       331.7       331.7       331.6       331.6       331.5       331.4       331.3       331.3    
        331.2       331.1       331.0       330.9       330.8       330.7       330.6       330.5       330.5       330.4    
        330.3       330.3       330.2       330.2       330.1    
   5    331.8       331.7       331.7       331.7       331.6       331.6       331.5       331.4       331.3       331.2    
        331.1       331.0       330.9       330.8       330.8       330.7       330.6       330.5       330.4       330.4    
        330.3       330.2       330.2       330.1       330.1    
   6    331.7       331.7       331.7       331.7       331.6       331.5       331.5       331.4       331.3       331.2    
        331.1       331.0       330.9       330.8       330.7       330.6       330.6       330.5       330.4       330.3    
        330.3       330.2       330.2       330.1       330.1    
   7    331.7       331.7       331.7       331.6       331.6       331.5       331.4       331.3       331.2       331.1    
        331.0       330.9       330.8       330.7       330.6       330.6       330.5       330.4       330.4       330.3    
        330.3       330.2       330.2       330.1       330.1    
   8    331.7       331.7       331.7       331.6       331.6       331.5       331.4       331.3       331.2       331.1    
        330.9       330.8       330.7       330.6       330.6       330.5       330.5       330.4       330.3       330.3    
        330.2       330.2       330.1       330.1       330.1    
   9    331.7       331.7       331.7       331.6       331.5       331.5       331.4       331.2       331.1       331.0    
        330.8       330.7       330.6       330.5       330.5       330.4       330.4       330.4       330.3       330.3    
        330.2       330.2       330.1       330.1       330.1    
  10    331.7       331.7       331.6       331.6       331.5       331.4       331.3       331.2       331.1       330.9    
        330.7       330.6       330.4       330.4       330.4       330.3       330.3       330.3       330.3       330.2    
        330.2       330.2       330.1       330.1       330.1    
  11    331.7       331.7       331.6       331.6       331.5       331.4       331.3       331.2       331.0       330.8    
        330.6       330.4       330.2       330.2       330.2       330.3       330.3       330.3       330.2       330.2    
        330.2       330.1       330.1       330.1       330.1    
  12    331.7       331.7       331.6       331.6       331.5       331.4       331.3       331.1       331.0       330.7    
        330.5       330.1       329.8       329.9       330.1       330.2       330.2       330.2       330.2       330.2    
        330.2       330.1       330.1       330.1       330.1    
  13    331.7       331.7       331.6       331.6       331.5       331.4       331.3       331.1       330.9       330.7    
        330.4       329.8       328.7       329.7       330.0       330.1       330.2       330.2       330.2       330.2    
        330.2       330.1       330.1       330.1       330.1    
  14    331.7       331.7       331.6       331.6       331.5       331.4       331.3       331.1       331.0       330.7    
        330.5       330.1       329.8       329.9       330.1       330.2       330.2       330.2       330.2       330.2    
        330.2       330.1       330.1       330.1       330.1    
  15    331.7       331.7       331.6       331.6       331.5       331.4       331.3       331.2       331.0       330.8    
        330.6       330.4       330.2       330.2       330.2       330.3       330.3       330.3       330.2       330.2    
        330.2       330.1       330.1       330.1       330.1    
  16    331.7       331.7       331.6       331.6       331.5       331.4       331.3       331.2       331.1       330.9    
        330.7       330.6       330.4       330.4       330.4       330.3       330.3       330.3       330.3       330.2    
        330.2       330.2       330.1       330.1       330.1    
  17    331.7       331.7       331.7       331.6       331.5       331.5       331.4       331.2       331.1       331.0    
        330.8       330.7       330.6       330.5       330.5       330.4       330.4       330.4       330.3       330.3    
        330.2       330.2       330.1       330.1       330.1    
  18    331.7       331.7       331.7       331.6       331.6       331.5       331.4       331.3       331.2       331.1    
        330.9       330.8       330.7       330.6       330.6       330.5       330.5       330.4       330.3       330.3    
        330.2       330.2       330.1       330.1       330.1    
  19    331.7       331.7       331.7       331.6       331.6       331.5       331.4       331.3       331.2       331.1    
        331.0       330.9       330.8       330.7       330.6       330.6       330.5       330.4       330.4       330.3    
        330.3       330.2       330.2       330.1       330.1    
  20    331.7       331.7       331.7       331.7       331.6       331.5       331.5       331.4       331.3       331.2    
        331.1       331.0       330.9       330.8       330.7       330.6       330.6       330.5       330.4       330.3    
        330.3       330.2       330.2       330.1       330.1    
  21    331.8       331.7       331.7       331.7       331.6       331.6       331.5       331.4       331.3       331.2    
        331.1       331.0       330.9       330.8       330.8       330.7       330.6       330.5       330.4       330.4    
        330.3       330.2       330.2       330.1       330.1    
  22    331.8       331.7       331.7       331.7       331.6       331.6       331.5       331.4       331.3       331.3    
        331.2       331.1       331.0       330.9       330.8       330.7       330.6       330.5       330.5       330.4    
        330.3       330.3       330.2       330.2       330.1    
  23    331.8       331.8       331.7       331.7       331.6       331.6       331.5       331.5       331.4       331.3    
        331.2       331.1       331.0       330.9       330.8       330.7       330.6       330.6       330.5       330.4    
        330.3       330.3       330.2       330.2       330.1    
  24    331.8       331.8       331.7       331.7       331.7       331.6       331.5       331.5       331.4       331.3    
        331.2       331.1       331.0       330.9       330.8       330.7       330.7       330.6       330.5       330.4    
        330.3       330.3       330.2       330.2       330.1    
  25    331.8       331.8       331.7       331.7       331.7       331.6       331.5       331.5       331.4       331.3    
        331.2       331.1       331.0       330.9       330.8       330.8       330.7       330.6       330.5       330.4    
        330.3       330.3       330.2       330.2       330.2    
1
              HEAD IN LAYER   5 AT END OF TIME STEP   4 IN STRESS PERIOD    2
  ---------------------------------------------------------------------------

            1           2           3           4           5           6           7           8           9          10
           11          12          13          14          15          16          17          18          19          20
           21          22          23          24          25
 ........................................................................................................................
   1    331.8       331.8       331.7       331.7       331.7       331.6       331.5       331.5       331.4       331.3    
        331.2       331.1       331.0       330.9       330.8       330.8       330.7       330.6       330.5       330.4    
        330.3       330.3       330.2       330.2       330.2    
   2    331.8       331.8       331.7       331.7       331.6       331.6       331.5       331.5       331.4       331.3    
        331.2       331.1       331.0       330.9       330.8       330.7       330.7       330.6       330.5       330.4    
        330.3       330.3       330.2       330.2       330.2    
   3    331.8       331.7       331.7       331.7       331.6       331.6       331.5       331.4       331.4       331.3    
        331.2       331.1       331.0       330.9       330.8       330.7       330.6       330.6       330.5       330.4    
        330.3       330.3       330.2       330.2       330.2    
   4    331.8       331.7       331.7       331.7       331.6       331.6       331.5       331.4       331.3       331.3    
        331.2       331.1       331.0       330.9       330.8       330.7       330.6       330.5       330.5       330.4    
        330.3       330.3       330.2       330.2       330.1    
   5    331.7       331.7       331.7       331.7       331.6       331.6       331.5       331.4       331.3       331.2    
        331.1       331.0       330.9       330.8       330.8       330.7       330.6       330.5       330.4       330.4    
        330.3       330.2       330.2       330.2       330.1    
   6    331.7       331.7       331.7       331.6       331.6       331.5       331.5       331.4       331.3       331.2    
        331.1       331.0       330.9       330.8       330.7       330.6       330.6       330.5       330.4       330.3    
        330.3       330.2       330.2       330.1       330.1    
   7    331.7       331.7       331.7       331.6       331.6       331.5       331.4       331.3       331.2       331.1    
        331.0       330.9       330.8       330.7       330.6       330.6       330.5       330.4       330.4       330.3    
        330.3       330.2       330.2       330.1       330.1    
   8    331.7       331.7       331.7       331.6       331.6       331.5       331.4       331.3       331.2       331.1    
        330.9       330.8       330.7       330.6       330.6       330.5       330.5       330.4       330.3       330.3    
        330.2       330.2       330.1       330.1       330.1    
   9    331.7       331.7       331.6       331.6       331.5       331.4       331.4       331.2       331.1       331.0    
        330.8       330.7       330.6       330.5       330.5       330.4       330.4       330.4       330.3       330.3    
        330.2       330.2       330.1       330.1       330.1    
  10    331.7       331.7       331.6       331.6       331.5       331.4       331.3       331.2       331.1       330.9    
        330.7       330.6       330.4       330.4       330.4       330.3       330.3       330.3       330.3       330.2    
        330.2       330.2       330.1       330.1       330.1    
  11    331.7       331.7       331.6       331.6       331.5       331.4       331.3       331.2       331.0       330.8    
        330.6       330.4       330.2       330.2       330.2       330.3       330.3       330.3       330.2       330.2    
        330.2       330.1       330.1       330.1       330.1    
  12    331.7       331.7       331.6       331.6       331.5       331.4       331.3       331.1       330.9       330.7    
        330.5       330.1       329.8       329.9       330.1       330.2       330.2       330.2       330.2       330.2    
        330.2       330.1       330.1       330.1       330.1    
  13    331.7       331.6       331.6       331.6       331.5       331.4       331.3       331.1       330.9       330.7    
        330.4       329.9       329.0       329.7       330.0       330.1       330.2       330.2       330.2       330.2    
        330.2       330.1       330.1       330.1       330.1    
  14    331.7       331.7       331.6       331.6       331.5       331.4       331.3       331.1       330.9       330.7    
        330.5       330.1       329.8       329.9       330.1       330.2       330.2       330.2       330.2       330.2    
        330.2       330.1       330.1       330.1       330.1    
  15    331.7       331.7       331.6       331.6       331.5       331.4       331.3       331.2       331.0       330.8    
        330.6       330.4       330.2       330.2       330.2       330.3       330.3       330.3       330.2       330.2    
        330.2       330.1       330.1       330.1       330.1    
  16    331.7       331.7       331.6       331.6       331.5       331.4       331.3       331.2       331.1       330.9    
        330.7       330.6       330.4       330.4       330.4       330.3       330.3       330.3       330.3       330.2    
        330.2       330.2       330.1       330.1       330.1    
  17    331.7       331.7       331.6       331.6       331.5       331.4       331.4       331.2       331.1       331.0    
        330.8       330.7       330.6       330.5       330.5       330.4       330.4       330.4       330.3       330.3    
        330.2       330.2       330.1       330.1       330.1    
  18    331.7       331.7       331.7       331.6       331.6       331.5       331.4       331.3       331.2       331.1    
        330.9       330.8       330.7       330.6       330.6       330.5       330.5       330.4       330.3       330.3    
        330.2       330.2       330.1       330.1       330.1    
  19    331.7       331.7       331.7       331.6       331.6       331.5       331.4       331.3       331.2       331.1    
        331.0       330.9       330.8       330.7       330.6       330.6       330.5       330.4       330.4       330.3    
        330.3       330.2       330.2       330.1       330.1    
  20    331.7       331.7       331.7       331.6       331.6       331.5       331.5       331.4       331.3       331.2    
        331.1       331.0       330.9       330.8       330.7       330.6       330.6       330.5       330.4       330.3    
        330.3       330.2       330.2       330.1       330.1    
  21    331.7       331.7       331.7       331.7       331.6       331.6       331.5       331.4       331.3       331.2    
        331.1       331.0       330.9       330.8       330.8       330.7       330.6       330.5       330.4       330.4    
        330.3       330.2       330.2       330.2       330.1    
  22    331.8       331.7       331.7       331.7       331.6       331.6       331.5       331.4       331.3       331.3    
        331.2       331.1       331.0       330.9       330.8       330.7       330.6       330.5       330.5       330.4    
        330.3       330.3       330.2       330.2       330.1    
  23    331.8       331.7       331.7       331.7       331.6       331.6       331.5       331.4       331.4       331.3    
        331.2       331.1       331.0       330.9       330.8       330.7       330.6       330.6       330.5       330.4    
        330.3       330.3       330.2       330.2       330.2    
  24    331.8       331.8       331.7       331.7       331.6       331.6       331.5       331.5       331.4       331.3    
        331.2       331.1       331.0       330.9       330.8       330.7       330.7       330.6       330.5       330.4    
        330.3       330.3       330.2       330.2       330.2    
  25    331.8       331.8       331.7       331.7       331.7       331.6       331.5       331.5       331.4       331.3    
        331.2       331.1       331.0       330.9       330.8       330.8       330.7       330.6       330.5       330.4    
        330.3       330.3       330.2       330.2       330.2    

 HEAD WILL BE SAVED ON UNIT   50 AT END OF TIME STEP    4, STRESS PERIOD    2



         TIME SUMMARY AT END OF TIME STEP    4 IN STRESS PERIOD    2
                    SECONDS     MINUTES      HOURS       DAYS        YEARS
                    -----------------------------------------------------------
   TIME STEP LENGTH 2.57302E+07 4.28836E+05  7147.3      297.80     0.81534    
 STRESS PERIOD TIME 6.19430E+07 1.03238E+06  17206.      716.93      1.9629    
         TOTAL TIME 1.73419E+10 2.89032E+08 4.81721E+06 2.00717E+05  549.53    
1
 
 SOLVING FOR HEAD 
     1 CALLS TO PCG ROUTINE FOR TIME STEP   5 IN STRESS PERIOD    2
     1 TOTAL ITERATIONS

 MAXIMUM HEAD CHANGE FOR EACH ITERATION (1 INDICATES THE FIRST INNER ITERATION):

    HEAD CHANGE    HEAD CHANGE    HEAD CHANGE    HEAD CHANGE    HEAD CHANGE 
   LAYER,ROW,COL  LAYER,ROW,COL  LAYER,ROW,COL  LAYER,ROW,COL  LAYER,ROW,COL
 ---------------------------------------------------------------------------
  1  0.1676E-04
   (  5, 12, 14)

 MAXIMUM RESIDUAL FOR EACH ITERATION (1 INDICATES THE FIRST INNER ITERATION):

    RESIDUAL       RESIDUAL       RESIDUAL       RESIDUAL       RESIDUAL    
   LAYER,ROW,COL  LAYER,ROW,COL  LAYER,ROW,COL  LAYER,ROW,COL  LAYER,ROW,COL
 ---------------------------------------------------------------------------
  1  -1.637    
   (  1,  1, 25)



 OUTPUT CONTROL FOR STRESS PERIOD    2   TIME STEP    5
    SAVE BUDGET
    PRINT HEAD FOR ALL LAYERS
    SAVE HEAD FOR ALL LAYERS
 UBDSV1 SAVING "         STORAGE" ON UNIT  53 AT TIME STEP  5, STRESS PERIOD   2
 UBDSV2 SAVING "   CONSTANT HEAD" ON UNIT  53 AT TIME STEP  5, STRESS PERIOD   2
 UBDSV1 SAVING "FLOW RIGHT FACE " ON UNIT  53 AT TIME STEP  5, STRESS PERIOD   2
 UBDSV1 SAVING "FLOW FRONT FACE " ON UNIT  53 AT TIME STEP  5, STRESS PERIOD   2
 UBDSV1 SAVING "FLOW LOWER FACE " ON UNIT  53 AT TIME STEP  5, STRESS PERIOD   2
 UBDSV4 SAVING "   RIVER LEAKAGE" ON UNIT  53 AT TIME STEP  5, STRESS PERIOD   2
 UBDSV3 SAVING "        RECHARGE" ON UNIT  53 AT TIME STEP  5, STRESS PERIOD   2
1
              HEAD IN LAYER   1 AT END OF TIME STEP   5 IN STRESS PERIOD    2
  ---------------------------------------------------------------------------

            1           2           3           4           5           6           7           8           9          10
           11          12          13          14          15          16          17          18          19          20
           21          22          23          24          25
 ........................................................................................................................
   1    339.1       339.1       339.0       338.9       338.8       338.6       338.4       338.1       337.8       337.4    
        337.0       336.6       336.0       335.4       334.7       334.0       333.1       332.1       331.0       329.7    
        328.3       326.7       324.8       322.7       320.1    
   2    339.1       339.1       339.0       338.9       338.8       338.6       338.4       338.1       337.8       337.4    
        337.0       336.5       336.0       335.4       334.7       334.0       333.1       332.1       331.0       329.7    
        328.3       326.7       324.8       322.7       320.1    
   3    339.1       339.1       339.0       338.9       338.8       338.6       338.4       338.1       337.8       337.4    
        337.0       336.5       336.0       335.4       334.7       334.0       333.1       332.1       331.0       329.7    
        328.3       326.7       324.8       322.7       320.1    
   4    339.1       339.1       339.0       338.9       338.8       338.6       338.4       338.1       337.8       337.4    
        337.0       336.5       336.0       335.4       334.7       334.0       333.1       332.1       331.0       329.7    
        328.3       326.7       324.8       322.7       320.1    
   5    339.1       339.1       339.0       338.9       338.8       338.6       338.3       338.1       337.8       337.4    
        337.0       336.5       336.0       335.4       334.7       333.9       333.1       332.1       331.0       329.7    
        328.3       326.7       324.8       322.7       320.1    
   6    339.1       339.1       339.0       338.9       338.8       338.6       338.3       338.1       337.8       337.4    
        337.0       336.5       336.0       335.4       334.7       333.9       333.1       332.1       331.0       329.7    
        328.3       326.7       324.8       322.7       320.1    
   7    339.1       339.1       339.0       338.9       338.7       338.6       338.3       338.1       337.8       337.4    
        337.0       336.5       336.0       335.4       334.7       333.9       333.1       332.1       331.0       329.7    
        328.3       326.7       324.8       322.7       320.1    
   8    339.1       339.1       339.0       338.9       338.7       338.6       338.3       338.1       337.7       337.4    
        337.0       336.5       336.0       335.4       334.7       333.9       333.1       332.1       331.0       329.7    
        328.3       326.7       324.8       322.7       320.1    
   9    339.1       339.1       339.0       338.9       338.7       338.5       338.3       338.0       337.7       337.4    
        337.0       336.5       335.9       335.3       334.7       333.9       333.0       332.1       331.0       329.7    
        328.3       326.7       324.8       322.7       320.1    
  10    339.1       339.1       339.0       338.9       338.7       338.5       338.3       338.0       337.7       337.4    
        336.9       336.5       335.9       335.3       334.7       333.9       333.0       332.1       331.0       329.7    
        328.3       326.7       324.8       322.7       320.1    
  11    339.1       339.1       339.0       338.9       338.7       338.5       338.3       338.0       337.7       337.3    
        336.9       336.5       335.9       335.3       334.6       333.9       333.0       332.1       331.0       329.7    
        328.3       326.7       324.8       322.7       320.1    
  12    339.1       339.1       339.0       338.9       338.7       338.5       338.3       338.0       337.7       337.3    
        336.9       336.4       335.9       335.3       334.6       333.9       333.0       332.0       331.0       329.7    
        328.3       326.7       324.8       322.7       320.1    
  13    339.1       339.1       339.0       338.9       338.7       338.5       338.3       338.0       337.7       337.3    
        336.9       336.4       335.9       335.3       334.6       333.9       333.0       332.0       330.9       329.7    
        328.3       326.7       324.8       322.7       320.1    
  14    339.1       339.1       339.0       338.9       338.7       338.5       338.3       338.0       337.7       337.3    
        336.9       336.4       335.9       335.3       334.6       333.9       333.0       332.0       331.0       329.7    
        328.3       326.7       324.8       322.7       320.1    
  15    339.1       339.1       339.0       338.9       338.7       338.5       338.3       338.0       337.7       337.3    
        336.9       336.5       335.9       335.3       334.6       333.9       333.0       332.1       331.0       329.7    
        328.3       326.7       324.8       322.7       320.1    
  16    339.1       339.1       339.0       338.9       338.7       338.5       338.3       338.0       337.7       337.4    
        336.9       336.5       335.9       335.3       334.7       333.9       333.0       332.1       331.0       329.7    
        328.3       326.7       324.8       322.7       320.1    
  17    339.1       339.1       339.0       338.9       338.7       338.5       338.3       338.0       337.7       337.4    
        337.0       336.5       335.9       335.3       334.7       333.9       333.0       332.1       331.0       329.7    
        328.3       326.7       324.8       322.7       320.1    
  18    339.1       339.1       339.0       338.9       338.7       338.6       338.3       338.1       337.7       337.4    
        337.0       336.5       336.0       335.4       334.7       333.9       333.1       332.1       331.0       329.7    
        328.3       326.7       324.8       322.7       320.1    
  19    339.1       339.1       339.0       338.9       338.7       338.6       338.3       338.1       337.8       337.4    
        337.0       336.5       336.0       335.4       334.7       333.9       333.1       332.1       331.0       329.7    
        328.3       326.7       324.8       322.7       320.1    
  20    339.1       339.1       339.0       338.9       338.8       338.6       338.3       338.1       337.8       337.4    
        337.0       336.5       336.0       335.4       334.7       333.9       333.1       332.1       331.0       329.7    
        328.3       326.7       324.8       322.7       320.1    
  21    339.1       339.1       339.0       338.9       338.8       338.6       338.3       338.1       337.8       337.4    
        337.0       336.5       336.0       335.4       334.7       333.9       333.1       332.1       331.0       329.7    
        328.3       326.7       324.8       322.7       320.1    
  22    339.1       339.1       339.0       338.9       338.8       338.6       338.4       338.1       337.8       337.4    
        337.0       336.5       336.0       335.4       334.7       334.0       333.1       332.1       331.0       329.7    
        328.3       326.7       324.8       322.7       320.1    
  23    339.1       339.1       339.0       338.9       338.8       338.6       338.4       338.1       337.8       337.4    
        337.0       336.5       336.0       335.4       334.7       334.0       333.1       332.1       331.0       329.7    
        328.3       326.7       324.8       322.7       320.1    
  24    339.1       339.1       339.0       338.9       338.8       338.6       338.4       338.1       337.8       337.4    
        337.0       336.5       336.0       335.4       334.7       334.0       333.1       332.1       331.0       329.7    
        328.3       326.7       324.8       322.7       320.1    
  25    339.1       339.1       339.0       338.9       338.8       338.6       338.4       338.1       337.8       337.4    
        337.0       336.6       336.0       335.4       334.7       334.0       333.1       332.1       331.0       329.7    
        328.3       326.7       324.8       322.7       320.1    
1
              HEAD IN LAYER   2 AT END OF TIME STEP   5 IN STRESS PERIOD    2
  ---------------------------------------------------------------------------

            1           2           3           4           5           6           7           8           9          10
           11          12          13          14          15          16          17          18          19          20
           21          22          23          24          25
 ........................................................................................................................
   1    339.1       339.1       339.0       338.9       338.7       338.6       338.3       338.1       337.8       337.4    
        337.0       336.5       336.0       335.4       334.7       333.9       333.1       332.1       331.0       329.7    
        328.3       326.7       324.8       322.7       320.3    
   2    339.1       339.1       339.0       338.9       338.7       338.6       338.3       338.1       337.8       337.4    
        337.0       336.5       336.0       335.4       334.7       333.9       333.1       332.1       331.0       329.7    
        328.3       326.7       324.8       322.7       320.3    
   3    339.1       339.1       339.0       338.9       338.7       338.6       338.3       338.1       337.8       337.4    
        337.0       336.5       336.0       335.4       334.7       333.9       333.1       332.1       331.0       329.7    
        328.3       326.7       324.8       322.7       320.3    
   4    339.1       339.1       339.0       338.9       338.7       338.6       338.3       338.1       337.8       337.4    
        337.0       336.5       336.0       335.4       334.7       333.9       333.1       332.1       331.0       329.7    
        328.3       326.7       324.8       322.7       320.3    
   5    339.1       339.1       339.0       338.9       338.7       338.5       338.3       338.1       337.7       337.4    
        337.0       336.5       336.0       335.4       334.7       333.9       333.1       332.1       331.0       329.7    
        328.3       326.7       324.8       322.7       320.3    
   6    339.1       339.1       339.0       338.9       338.7       338.5       338.3       338.1       337.7       337.4    
        337.0       336.5       336.0       335.4       334.7       333.9       333.1       332.1       331.0       329.7    
        328.3       326.7       324.8       322.7       320.3    
   7    339.1       339.0       339.0       338.9       338.7       338.5       338.3       338.0       337.7       337.4    
        337.0       336.5       336.0       335.4       334.7       333.9       333.0       332.1       331.0       329.7    
        328.3       326.7       324.8       322.7       320.3    
   8    339.1       339.0       339.0       338.9       338.7       338.5       338.3       338.0       337.7       337.4    
        336.9       336.5       335.9       335.3       334.7       333.9       333.0       332.1       331.0       329.7    
        328.3       326.7       324.8       322.7       320.3    
   9    339.1       339.0       339.0       338.9       338.7       338.5       338.3       338.0       337.7       337.3    
        336.9       336.5       335.9       335.3       334.6       333.9       333.0       332.1       331.0       329.7    
        328.3       326.7       324.8       322.7       320.3    
  10    339.1       339.0       339.0       338.9       338.7       338.5       338.3       338.0       337.7       337.3    
        336.9       336.4       335.9       335.3       334.6       333.9       333.0       332.0       330.9       329.7    
        328.3       326.7       324.8       322.7       320.3    
  11    339.1       339.0       339.0       338.8       338.7       338.5       338.3       338.0       337.7       337.3    
        336.9       336.4       335.9       335.3       334.6       333.9       333.0       332.0       330.9       329.7    
        328.3       326.7       324.8       322.7       320.3    
  12    339.1       339.0       339.0       338.8       338.7       338.5       338.3       338.0       337.7       337.3    
        336.9       336.4       335.9       335.3       334.6       333.9       333.0       332.0       330.9       329.7    
        328.3       326.7       324.8       322.7       320.3    
  13    339.1       339.0       339.0       338.8       338.7       338.5       338.3       338.0       337.7       337.3    
        336.9       336.4       335.9       335.3       334.6       333.9       333.0       332.0       330.9       329.7    
        328.3       326.7       324.8       322.7       320.3    
  14    339.1       339.0       339.0       338.8       338.7       338.5       338.3       338.0       337.7       337.3    
        336.9       336.4       335.9       335.3       334.6       333.9       333.0       332.0       330.9       329.7    
        328.3       326.7       324.8       322.7       320.3    
  15    339.1       339.0       339.0       338.8       338.7       338.5       338.3       338.0       337.7       337.3    
        336.9       336.4       335.9       335.3       334.6       333.9       333.0       332.0       330.9       329.7    
        328.3       326.7       324.8       322.7       320.3    
  16    339.1       339.0       339.0       338.9       338.7       338.5       338.3       338.0       337.7       337.3    
        336.9       336.4       335.9       335.3       334.6       333.9       333.0       332.0       330.9       329.7    
        328.3       326.7       324.8       322.7       320.3    
  17    339.1       339.0       339.0       338.9       338.7       338.5       338.3       338.0       337.7       337.3    
        336.9       336.5       335.9       335.3       334.6       333.9       333.0       332.1       331.0       329.7    
        328.3       326.7       324.8       322.7       320.3    
  18    339.1       339.0       339.0       338.9       338.7       338.5       338.3       338.0       337.7       337.4    
        336.9       336.5       335.9       335.3       334.7       333.9       333.0       332.1       331.0       329.7    
        328.3       326.7       324.8       322.7       320.3    
  19    339.1       339.0       339.0       338.9       338.7       338.5       338.3       338.0       337.7       337.4    
        337.0       336.5       336.0       335.4       334.7       333.9       333.0       332.1       331.0       329.7    
        328.3       326.7       324.8       322.7       320.3    
  20    339.1       339.1       339.0       338.9       338.7       338.5       338.3       338.1       337.7       337.4    
        337.0       336.5       336.0       335.4       334.7       333.9       333.1       332.1       331.0       329.7    
        328.3       326.7       324.8       322.7       320.3    
  21    339.1       339.1       339.0       338.9       338.7       338.5       338.3       338.1       337.7       337.4    
        337.0       336.5       336.0       335.4       334.7       333.9       333.1       332.1       331.0       329.7    
        328.3       326.7       324.8       322.7       320.3    
  22    339.1       339.1       339.0       338.9       338.7       338.6       338.3       338.1       337.8       337.4    
        337.0       336.5       336.0       335.4       334.7       333.9       333.1       332.1       331.0       329.7    
        328.3       326.7       324.8       322.7       320.3    
  23    339.1       339.1       339.0       338.9       338.7       338.6       338.3       338.1       337.8       337.4    
        337.0       336.5       336.0       335.4       334.7       333.9       333.1       332.1       331.0       329.7    
        328.3       326.7       324.8       322.7       320.3    
  24    339.1       339.1       339.0       338.9       338.7       338.6       338.3       338.1       337.8       337.4    
        337.0       336.5       336.0       335.4       334.7       333.9       333.1       332.1       331.0       329.7    
        328.3       326.7       324.8       322.7       320.3    
  25    339.1       339.1       339.0       338.9       338.7       338.6       338.3       338.1       337.8       337.4    
        337.0       336.5       336.0       335.4       334.7       333.9       333.1       332.1       331.0       329.7    
        328.3       326.7       324.8       322.7       320.3    
1
              HEAD IN LAYER   3 AT END OF TIME STEP   5 IN STRESS PERIOD    2
  ---------------------------------------------------------------------------

            1           2           3           4           5           6           7           8           9          10
           11          12          13          14          15          16          17          18          19          20
           21          22          23          24          25
 ........................................................................................................................
   1    335.4       335.4       335.4       335.3       335.2       335.1       334.9       334.8       334.6       334.4    
        334.1       333.8       333.5       333.2       332.8       332.4       331.9       331.3       330.7       330.1    
        329.3       328.5       327.5       326.4       325.3    
   2    335.4       335.4       335.4       335.3       335.2       335.1       334.9       334.8       334.6       334.4    
        334.1       333.8       333.5       333.2       332.8       332.3       331.9       331.3       330.7       330.1    
        329.3       328.5       327.5       326.4       325.2    
   3    335.4       335.4       335.4       335.3       335.2       335.1       334.9       334.8       334.6       334.3    
        334.1       333.8       333.5       333.2       332.8       332.3       331.9       331.3       330.7       330.1    
        329.3       328.5       327.5       326.4       325.2    
   4    335.4       335.4       335.4       335.3       335.2       335.1       334.9       334.7       334.6       334.3    
        334.1       333.8       333.5       333.1       332.7       332.3       331.8       331.3       330.7       330.1    
        329.3       328.5       327.5       326.4       325.2    
   5    335.4       335.4       335.3       335.3       335.2       335.1       334.9       334.7       334.5       334.3    
        334.1       333.8       333.5       333.1       332.7       332.3       331.8       331.3       330.7       330.0    
        329.3       328.5       327.5       326.4       325.2    
   6    335.4       335.4       335.3       335.3       335.2       335.0       334.9       334.7       334.5       334.3    
        334.0       333.7       333.4       333.1       332.7       332.3       331.8       331.3       330.7       330.0    
        329.3       328.4       327.5       326.4       325.2    
   7    335.4       335.4       335.3       335.3       335.2       335.0       334.9       334.7       334.5       334.2    
        334.0       333.7       333.4       333.0       332.7       332.2       331.8       331.3       330.7       330.0    
        329.3       328.4       327.5       326.4       325.2    
   8    335.4       335.4       335.3       335.2       335.1       335.0       334.8       334.7       334.5       334.2    
        333.9       333.6       333.3       333.0       332.6       332.2       331.7       331.2       330.7       330.0    
        329.3       328.4       327.5       326.4       325.2    
   9    335.4       335.4       335.3       335.2       335.1       335.0       334.8       334.6       334.4       334.2    
        333.9       333.6       333.3       332.9       332.6       332.2       331.7       331.2       330.6       330.0    
        329.2       328.4       327.5       326.4       325.2    
  10    335.4       335.4       335.3       335.2       335.1       335.0       334.8       334.6       334.4       334.1    
        333.8       333.5       333.2       332.8       332.5       332.1       331.7       331.2       330.6       330.0    
        329.2       328.4       327.5       326.4       325.2    
  11    335.4       335.3       335.3       335.2       335.1       335.0       334.8       334.6       334.3       334.1    
        333.8       333.4       333.0       332.7       332.4       332.1       331.6       331.2       330.6       330.0    
        329.2       328.4       327.5       326.4       325.2    
  12    335.4       335.3       335.3       335.2       335.1       335.0       334.8       334.6       334.3       334.0    
        333.7       333.3       332.8       332.6       332.4       332.0       331.6       331.1       330.6       329.9    
        329.2       328.4       327.5       326.4       325.2    
  13    335.4       335.3       335.3       335.2       335.1       335.0       334.8       334.6       334.3       334.0    
        333.6       333.1       332.3       332.5       332.3       332.0       331.6       331.1       330.6       329.9    
        329.2       328.4       327.5       326.4       325.2    
  14    335.4       335.3       335.3       335.2       335.1       335.0       334.8       334.6       334.3       334.0    
        333.7       333.3       332.8       332.6       332.4       332.0       331.6       331.1       330.6       329.9    
        329.2       328.4       327.5       326.4       325.2    
  15    335.4       335.3       335.3       335.2       335.1       335.0       334.8       334.6       334.3       334.1    
        333.8       333.4       333.0       332.7       332.4       332.1       331.6       331.2       330.6       330.0    
        329.2       328.4       327.5       326.4       325.2    
  16    335.4       335.4       335.3       335.2       335.1       335.0       334.8       334.6       334.4       334.1    
        333.8       333.5       333.2       332.8       332.5       332.1       331.7       331.2       330.6       330.0    
        329.2       328.4       327.5       326.4       325.2    
  17    335.4       335.4       335.3       335.2       335.1       335.0       334.8       334.6       334.4       334.2    
        333.9       333.6       333.3       332.9       332.6       332.2       331.7       331.2       330.6       330.0    
        329.2       328.4       327.5       326.4       325.2    
  18    335.4       335.4       335.3       335.2       335.1       335.0       334.8       334.7       334.5       334.2    
        333.9       333.6       333.3       333.0       332.6       332.2       331.7       331.2       330.7       330.0    
        329.3       328.4       327.5       326.4       325.2    
  19    335.4       335.4       335.3       335.3       335.2       335.0       334.9       334.7       334.5       334.2    
        334.0       333.7       333.4       333.0       332.7       332.2       331.8       331.3       330.7       330.0    
        329.3       328.4       327.5       326.4       325.2    
  20    335.4       335.4       335.3       335.3       335.2       335.0       334.9       334.7       334.5       334.3    
        334.0       333.7       333.4       333.1       332.7       332.3       331.8       331.3       330.7       330.0    
        329.3       328.4       327.5       326.4       325.2    
  21    335.4       335.4       335.3       335.3       335.2       335.1       334.9       334.7       334.5       334.3    
        334.1       333.8       333.5       333.1       332.7       332.3       331.8       331.3       330.7       330.0    
        329.3       328.5       327.5       326.4       325.2    
  22    335.4       335.4       335.4       335.3       335.2       335.1       334.9       334.7       334.6       334.3    
        334.1       333.8       333.5       333.1       332.7       332.3       331.8       331.3       330.7       330.1    
        329.3       328.5       327.5       326.4       325.2    
  23    335.4       335.4       335.4       335.3       335.2       335.1       334.9       334.8       334.6       334.3    
        334.1       333.8       333.5       333.2       332.8       332.3       331.9       331.3       330.7       330.1    
        329.3       328.5       327.5       326.4       325.2    
  24    335.4       335.4       335.4       335.3       335.2       335.1       334.9       334.8       334.6       334.4    
        334.1       333.8       333.5       333.2       332.8       332.3       331.9       331.3       330.7       330.1    
        329.3       328.5       327.5       326.4       325.2    
  25    335.4       335.4       335.4       335.3       335.2       335.1       334.9       334.8       334.6       334.4    
        334.1       333.8       333.5       333.2       332.8       332.4       331.9       331.3       330.7       330.1    
        329.3       328.5       327.5       326.4       325.3    
1
              HEAD IN LAYER   4 AT END OF TIME STEP   5 IN STRESS PERIOD    2
  ---------------------------------------------------------------------------

            1           2           3           4           5           6           7           8           9          10
           11          12          13          14          15          16          17          18          19          20
           21          22          23          24          25
 ........................................................................................................................
   1    331.8       331.8       331.7       331.7       331.7       331.6       331.5       331.5       331.4       331.3    
        331.2       331.1       331.0       330.9       330.8       330.8       330.7       330.6       330.5       330.4    
        330.3       330.3       330.2       330.2       330.2    
   2    331.8       331.8       331.7       331.7       331.7       331.6       331.5       331.5       331.4       331.3    
        331.2       331.1       331.0       330.9       330.8       330.7       330.7       330.6       330.5       330.4    
        330.3       330.3       330.2       330.2       330.1    
   3    331.8       331.8       331.7       331.7       331.6       331.6       331.5       331.5       331.4       331.3    
        331.2       331.1       331.0       330.9       330.8       330.7       330.6       330.6       330.5       330.4    
        330.3       330.3       330.2       330.2       330.1    
   4    331.8       331.7       331.7       331.7       331.6       331.6       331.5       331.4       331.3       331.3    
        331.2       331.1       331.0       330.9       330.8       330.7       330.6       330.5       330.5       330.4    
        330.3       330.3       330.2       330.2       330.1    
   5    331.8       331.7       331.7       331.7       331.6       331.6       331.5       331.4       331.3       331.2    
        331.1       331.0       330.9       330.8       330.8       330.7       330.6       330.5       330.4       330.4    
        330.3       330.2       330.2       330.1       330.1    
   6    331.7       331.7       331.7       331.7       331.6       331.5       331.5       331.4       331.3       331.2    
        331.1       331.0       330.9       330.8       330.7       330.6       330.6       330.5       330.4       330.3    
        330.3       330.2       330.2       330.1       330.1    
   7    331.7       331.7       331.7       331.6       331.6       331.5       331.4       331.3       331.2       331.1    
        331.0       330.9       330.8       330.7       330.6       330.6       330.5       330.4       330.4       330.3    
        330.3       330.2       330.2       330.1       330.1    
   8    331.7       331.7       331.7       331.6       331.6       331.5       331.4       331.3       331.2       331.1    
        330.9       330.8       330.7       330.6       330.6       330.5       330.5       330.4       330.3       330.3    
        330.2       330.2       330.1       330.1       330.1    
   9    331.7       331.7       331.7       331.6       331.5       331.5       331.4       331.2       331.1       331.0    
        330.8       330.7       330.6       330.5       330.5       330.4       330.4       330.4       330.3       330.3    
        330.2       330.2       330.1       330.1       330.1    
  10    331.7       331.7       331.6       331.6       331.5       331.4       331.3       331.2       331.1       330.9    
        330.7       330.6       330.4       330.4       330.4       330.3       330.3       330.3       330.3       330.2    
        330.2       330.2       330.1       330.1       330.1    
  11    331.7       331.7       331.6       331.6       331.5       331.4       331.3       331.2       331.0       330.8    
        330.6       330.4       330.2       330.2       330.2       330.3       330.3       330.3       330.2       330.2    
        330.2       330.1       330.1       330.1       330.1    
  12    331.7       331.7       331.6       331.6       331.5       331.4       331.3       331.1       331.0       330.7    
        330.5       330.1       329.8       329.9       330.1       330.2       330.2       330.2       330.2       330.2    
        330.2       330.1       330.1       330.1       330.1    
  13    331.7       331.7       331.6       331.6       331.5       331.4       331.3       331.1       330.9       330.7    
        330.4       329.8       328.7       329.7       330.0       330.1       330.2       330.2       330.2       330.2    
        330.2       330.1       330.1       330.1       330.1    
  14    331.7       331.7       331.6       331.6       331.5       331.4       331.3       331.1       331.0       330.7    
        330.5       330.1       329.8       329.9       330.1       330.2       330.2       330.2       330.2       330.2    
        330.2       330.1       330.1       330.1       330.1    
  15    331.7       331.7       331.6       331.6       331.5       331.4       331.3       331.2       331.0       330.8    
        330.6       330.4       330.2       330.2       330.2       330.3       330.3       330.3       330.2       330.2    
        330.2       330.1       330.1       330.1       330.1    
  16    331.7       331.7       331.6       331.6       331.5       331.4       331.3       331.2       331.1       330.9    
        330.7       330.6       330.4       330.4       330.4       330.3       330.3       330.3       330.3       330.2    
        330.2       330.2       330.1       330.1       330.1    
  17    331.7       331.7       331.7       331.6       331.5       331.5       331.4       331.2       331.1       331.0    
        330.8       330.7       330.6       330.5       330.5       330.4       330.4       330.4       330.3       330.3    
        330.2       330.2       330.1       330.1       330.1    
  18    331.7       331.7       331.7       331.6       331.6       331.5       331.4       331.3       331.2       331.1    
        330.9       330.8       330.7       330.6       330.6       330.5       330.5       330.4       330.3       330.3    
        330.2       330.2       330.1       330.1       330.1    
  19    331.7       331.7       331.7       331.6       331.6       331.5       331.4       331.3       331.2       331.1    
        331.0       330.9       330.8       330.7       330.6       330.6       330.5       330.4       330.4       330.3    
        330.3       330.2       330.2       330.1       330.1    
  20    331.7       331.7       331.7       331.7       331.6       331.5       331.5       331.4       331.3       331.2    
        331.1       331.0       330.9       330.8       330.7       330.6       330.6       330.5       330.4       330.3    
        330.3       330.2       330.2       330.1       330.1    
  21    331.8       331.7       331.7       331.7       331.6       331.6       331.5       331.4       331.3       331.2    
        331.1       331.0       330.9       330.8       330.8       330.7       330.6       330.5       330.4       330.4    
        330.3       330.2       330.2       330.1       330.1    
  22    331.8       331.7       331.7       331.7       331.6       331.6       331.5       331.4       331.3       331.3    
        331.2       331.1       331.0       330.9       330.8       330.7       330.6       330.5       330.5       330.4    
        330.3       330.3       330.2       330.2       330.1    
  23    331.8       331.8       331.7       331.7       331.6       331.6       331.5       331.5       331.4       331.3    
        331.2       331.1       331.0       330.9       330.8       330.7       330.6       330.6       330.5       330.4    
        330.3       330.3       330.2       330.2       330.1    
  24    331.8       331.8       331.7       331.7       331.7       331.6       331.5       331.5       331.4       331.3    
        331.2       331.1       331.0       330.9       330.8       330.7       330.7       330.6       330.5       330.4    
        330.3       330.3       330.2       330.2       330.1    
  25    331.8       331.8       331.7       331.7       331.7       331.6       331.5       331.5       331.4       331.3    
        331.2       331.1       331.0       330.9       330.8       330.8       330.7       330.6       330.5       330.4    
        330.3       330.3       330.2       330.2       330.2    
1
              HEAD IN LAYER   5 AT END OF TIME STEP   5 IN STRESS PERIOD    2
  ---------------------------------------------------------------------------

            1           2           3           4           5           6           7           8           9          10
           11          12          13          14          15          16          17          18          19          20
           21          22          23          24          25
 ........................................................................................................................
   1    331.8       331.8       331.7       331.7       331.7       331.6       331.5       331.5       331.4       331.3    
        331.2       331.1       331.0       330.9       330.8       330.8       330.7       330.6       330.5       330.4    
        330.3       330.3       330.2       330.2       330.2    
   2    331.8       331.8       331.7       331.7       331.6       331.6       331.5       331.5       331.4       331.3    
        331.2       331.1       331.0       330.9       330.8       330.7       330.7       330.6       330.5       330.4    
        330.3       330.3       330.2       330.2       330.2    
   3    331.8       331.7       331.7       331.7       331.6       331.6       331.5       331.4       331.4       331.3    
        331.2       331.1       331.0       330.9       330.8       330.7       330.6       330.6       330.5       330.4    
        330.3       330.3       330.2       330.2       330.2    
   4    331.8       331.7       331.7       331.7       331.6       331.6       331.5       331.4       331.3       331.3    
        331.2       331.1       331.0       330.9       330.8       330.7       330.6       330.5       330.5       330.4    
        330.3       330.3       330.2       330.2       330.1    
   5    331.7       331.7       331.7       331.7       331.6       331.6       331.5       331.4       331.3       331.2    
        331.1       331.0       330.9       330.8       330.8       330.7       330.6       330.5       330.4       330.4    
        330.3       330.2       330.2       330.2       330.1    
   6    331.7       331.7       331.7       331.6       331.6       331.5       331.5       331.4       331.3       331.2    
        331.1       331.0       330.9       330.8       330.7       330.6       330.6       330.5       330.4       330.3    
        330.3       330.2       330.2       330.1       330.1    
   7    331.7       331.7       331.7       331.6       331.6       331.5       331.4       331.3       331.2       331.1    
        331.0       330.9       330.8       330.7       330.6       330.6       330.5       330.4       330.4       330.3    
        330.3       330.2       330.2       330.1       330.1    
   8    331.7       331.7       331.7       331.6       331.6       331.5       331.4       331.3       331.2       331.1    
        330.9       330.8       330.7       330.6       330.6       330.5       330.5       330.4       330.3       330.3    
        330.2       330.2       330.1       330.1       330.1    
   9    331.7       331.7       331.6       331.6       331.5       331.4       331.4       331.2       331.1       331.0    
        330.8       330.7       330.6       330.5       330.5       330.4       330.4       330.4       330.3       330.3    
        330.2       330.2       330.1       330.1       330.1    
  10    331.7       331.7       331.6       331.6       331.5       331.4       331.3       331.2       331.1       330.9    
        330.7       330.6       330.4       330.4       330.4       330.3       330.3       330.3       330.3       330.2    
        330.2       330.2       330.1       330.1       330.1    
  11    331.7       331.7       331.6       331.6       331.5       331.4       331.3       331.2       331.0       330.8    
        330.6       330.4       330.2       330.2       330.2       330.3       330.3       330.3       330.2       330.2    
        330.2       330.1       330.1       330.1       330.1    
  12    331.7       331.7       331.6       331.6       331.5       331.4       331.3       331.1       330.9       330.7    
        330.5       330.1       329.8       329.9       330.1       330.2       330.2       330.2       330.2       330.2    
        330.2       330.1       330.1       330.1       330.1    
  13    331.7       331.6       331.6       331.6       331.5       331.4       331.3       331.1       330.9       330.7    
        330.4       329.9       329.0       329.7       330.0       330.1       330.2       330.2       330.2       330.2    
        330.2       330.1       330.1       330.1       330.1    
  14    331.7       331.7       331.6       331.6       331.5       331.4       331.3       331.1       330.9       330.7    
        330.5       330.1       329.8       329.9       330.1       330.2       330.2       330.2       330.2       330.2    
        330.2       330.1       330.1       330.1       330.1    
  15    331.7       331.7       331.6       331.6       331.5       331.4       331.3       331.2       331.0       330.8    
        330.6       330.4       330.2       330.2       330.2       330.3       330.3       330.3       330.2       330.2    
        330.2       330.1       330.1       330.1       330.1    
  16    331.7       331.7       331.6       331.6       331.5       331.4       331.3       331.2       331.1       330.9    
        330.7       330.6       330.4       330.4       330.4       330.3       330.3       330.3       330.3       330.2    
        330.2       330.2       330.1       330.1       330.1    
  17    331.7       331.7       331.6       331.6       331.5       331.4       331.4       331.2       331.1       331.0    
        330.8       330.7       330.6       330.5       330.5       330.4       330.4       330.4       330.3       330.3    
        330.2       330.2       330.1       330.1       330.1    
  18    331.7       331.7       331.7       331.6       331.6       331.5       331.4       331.3       331.2       331.1    
        330.9       330.8       330.7       330.6       330.6       330.5       330.5       330.4       330.3       330.3    
        330.2       330.2       330.1       330.1       330.1    
  19    331.7       331.7       331.7       331.6       331.6       331.5       331.4       331.3       331.2       331.1    
        331.0       330.9       330.8       330.7       330.6       330.6       330.5       330.4       330.4       330.3    
        330.3       330.2       330.2       330.1       330.1    
  20    331.7       331.7       331.7       331.6       331.6       331.5       331.5       331.4       331.3       331.2    
        331.1       331.0       330.9       330.8       330.7       330.6       330.6       330.5       330.4       330.3    
        330.3       330.2       330.2       330.1       330.1    
  21    331.7       331.7       331.7       331.7       331.6       331.6       331.5       331.4       331.3       331.2    
        331.1       331.0       330.9       330.8       330.8       330.7       330.6       330.5       330.4       330.4    
        330.3       330.2       330.2       330.2       330.1    
  22    331.8       331.7       331.7       331.7       331.6       331.6       331.5       331.4       331.3       331.3    
        331.2       331.1       331.0       330.9       330.8       330.7       330.6       330.5       330.5       330.4    
        330.3       330.3       330.2       330.2       330.1    
  23    331.8       331.7       331.7       331.7       331.6       331.6       331.5       331.4       331.4       331.3    
        331.2       331.1       331.0       330.9       330.8       330.7       330.6       330.6       330.5       330.4    
        330.3       330.3       330.2       330.2       330.2    
  24    331.8       331.8       331.7       331.7       331.6       331.6       331.5       331.5       331.4       331.3    
        331.2       331.1       331.0       330.9       330.8       330.7       330.7       330.6       330.5       330.4    
        330.3       330.3       330.2       330.2       330.2    
  25    331.8       331.8       331.7       331.7       331.7       331.6       331.5       331.5       331.4       331.3    
        331.2       331.1       331.0       330.9       330.8       330.8       330.7       330.6       330.5       330.4    
        330.3       330.3       330.2       330.2       330.2    

 HEAD WILL BE SAVED ON UNIT   50 AT END OF TIME STEP    5, STRESS PERIOD    2



         TIME SUMMARY AT END OF TIME STEP    5 IN STRESS PERIOD    2
                    SECONDS     MINUTES      HOURS       DAYS        YEARS
                    -----------------------------------------------------------
   TIME STEP LENGTH 3.85952E+07 6.43254E+05  10721.      446.70      1.2230    
 STRESS PERIOD TIME 1.00538E+08 1.67564E+06  27927.      1163.6      3.1859    
         TOTAL TIME 1.73805E+10 2.89676E+08 4.82793E+06 2.01164E+05  550.76    
1
 
 SOLVING FOR HEAD 
     1 CALLS TO PCG ROUTINE FOR TIME STEP   6 IN STRESS PERIOD    2
     1 TOTAL ITERATIONS

 MAXIMUM HEAD CHANGE FOR EACH ITERATION (1 INDICATES THE FIRST INNER ITERATION):

    HEAD CHANGE    HEAD CHANGE    HEAD CHANGE    HEAD CHANGE    HEAD CHANGE 
   LAYER,ROW,COL  LAYER,ROW,COL  LAYER,ROW,COL  LAYER,ROW,COL  LAYER,ROW,COL
 ---------------------------------------------------------------------------
  1 -0.1171E-04
   (  5,  9, 11)

 MAXIMUM RESIDUAL FOR EACH ITERATION (1 INDICATES THE FIRST INNER ITERATION):

    RESIDUAL       RESIDUAL       RESIDUAL       RESIDUAL       RESIDUAL    
   LAYER,ROW,COL  LAYER,ROW,COL  LAYER,ROW,COL  LAYER,ROW,COL  LAYER,ROW,COL
 ---------------------------------------------------------------------------
  1   1.073    
   (  1, 22, 25)



 OUTPUT CONTROL FOR STRESS PERIOD    2   TIME STEP    6
    SAVE BUDGET
    PRINT HEAD FOR ALL LAYERS
    SAVE HEAD FOR ALL LAYERS
 UBDSV1 SAVING "         STORAGE" ON UNIT  53 AT TIME STEP  6, STRESS PERIOD   2
 UBDSV2 SAVING "   CONSTANT HEAD" ON UNIT  53 AT TIME STEP  6, STRESS PERIOD   2
 UBDSV1 SAVING "FLOW RIGHT FACE " ON UNIT  53 AT TIME STEP  6, STRESS PERIOD   2
 UBDSV1 SAVING "FLOW FRONT FACE " ON UNIT  53 AT TIME STEP  6, STRESS PERIOD   2
 UBDSV1 SAVING "FLOW LOWER FACE " ON UNIT  53 AT TIME STEP  6, STRESS PERIOD   2
 UBDSV4 SAVING "   RIVER LEAKAGE" ON UNIT  53 AT TIME STEP  6, STRESS PERIOD   2
 UBDSV3 SAVING "        RECHARGE" ON UNIT  53 AT TIME STEP  6, STRESS PERIOD   2
1
              HEAD IN LAYER   1 AT END OF TIME STEP   6 IN STRESS PERIOD    2
  ---------------------------------------------------------------------------

            1           2           3           4           5           6           7           8           9          10
           11          12          13          14          15          16          17          18          19          20
           21          22          23          24          25
 ........................................................................................................................
   1    339.1       339.1       339.0       338.9       338.8       338.6       338.4       338.1       337.8       337.4    
        337.0       336.6       336.0       335.4       334.7       334.0       333.1       332.1       331.0       329.7    
        328.3       326.7       324.8       322.7       320.1    
   2    339.1       339.1       339.0       338.9       338.8       338.6       338.4       338.1       337.8       337.4    
        337.0       336.5       336.0       335.4       334.7       334.0       333.1       332.1       331.0       329.7    
        328.3       326.7       324.8       322.7       320.1    
   3    339.1       339.1       339.0       338.9       338.8       338.6       338.4       338.1       337.8       337.4    
        337.0       336.5       336.0       335.4       334.7       334.0       333.1       332.1       331.0       329.7    
        328.3       326.7       324.8       322.7       320.1    
   4    339.1       339.1       339.0       338.9       338.8       338.6       338.4       338.1       337.8       337.4    
        337.0       336.5       336.0       335.4       334.7       334.0       333.1       332.1       331.0       329.7    
        328.3       326.7       324.8       322.7       320.1    
   5    339.1       339.1       339.0       338.9       338.8       338.6       338.3       338.1       337.8       337.4    
        337.0       336.5       336.0       335.4       334.7       333.9       333.1       332.1       331.0       329.7    
        328.3       326.7       324.8       322.7       320.1    
   6    339.1       339.1       339.0       338.9       338.8       338.6       338.3       338.1       337.8       337.4    
        337.0       336.5       336.0       335.4       334.7       333.9       333.1       332.1       331.0       329.7    
        328.3       326.7       324.8       322.7       320.1    
   7    339.1       339.1       339.0       338.9       338.7       338.6       338.3       338.1       337.8       337.4    
        337.0       336.5       336.0       335.4       334.7       333.9       333.1       332.1       331.0       329.7    
        328.3       326.7       324.8       322.7       320.1    
   8    339.1       339.1       339.0       338.9       338.7       338.6       338.3       338.1       337.7       337.4    
        337.0       336.5       336.0       335.4       334.7       333.9       333.1       332.1       331.0       329.7    
        328.3       326.7       324.8       322.7       320.1    
   9    339.1       339.1       339.0       338.9       338.7       338.5       338.3       338.0       337.7       337.4    
        337.0       336.5       335.9       335.3       334.7       333.9       333.0       332.1       331.0       329.7    
        328.3       326.7       324.8       322.7       320.1    
  10    339.1       339.1       339.0       338.9       338.7       338.5       338.3       338.0       337.7       337.4    
        336.9       336.5       335.9       335.3       334.7       333.9       333.0       332.1       331.0       329.7    
        328.3       326.7       324.8       322.7       320.1    
  11    339.1       339.1       339.0       338.9       338.7       338.5       338.3       338.0       337.7       337.3    
        336.9       336.5       335.9       335.3       334.6       333.9       333.0       332.1       331.0       329.7    
        328.3       326.7       324.8       322.7       320.1    
  12    339.1       339.1       339.0       338.9       338.7       338.5       338.3       338.0       337.7       337.3    
        336.9       336.4       335.9       335.3       334.6       333.9       333.0       332.0       331.0       329.7    
        328.3       326.7       324.8       322.7       320.1    
  13    339.1       339.1       339.0       338.9       338.7       338.5       338.3       338.0       337.7       337.3    
        336.9       336.4       335.9       335.3       334.6       333.9       333.0       332.0       330.9       329.7    
        328.3       326.7       324.8       322.7       320.1    
  14    339.1       339.1       339.0       338.9       338.7       338.5       338.3       338.0       337.7       337.3    
        336.9       336.4       335.9       335.3       334.6       333.9       333.0       332.0       331.0       329.7    
        328.3       326.7       324.8       322.7       320.1    
  15    339.1       339.1       339.0       338.9       338.7       338.5       338.3       338.0       337.7       337.3    
        336.9       336.5       335.9       335.3       334.6       333.9       333.0       332.1       331.0       329.7    
        328.3       326.7       324.8       322.7       320.1    
  16    339.1       339.1       339.0       338.9       338.7       338.5       338.3       338.0       337.7       337.4    
        336.9       336.5       335.9       335.3       334.7       333.9       333.0       332.1       331.0       329.7    
        328.3       326.7       324.8       322.7       320.1    
  17    339.1       339.1       339.0       338.9       338.7       338.5       338.3       338.0       337.7       337.4    
        337.0       336.5       335.9       335.3       334.7       333.9       333.0       332.1       331.0       329.7    
        328.3       326.7       324.8       322.7       320.1    
  18    339.1       339.1       339.0       338.9       338.7       338.6       338.3       338.1       337.7       337.4    
        337.0       336.5       336.0       335.4       334.7       333.9       333.1       332.1       331.0       329.7    
        328.3       326.7       324.8       322.7       320.1    
  19    339.1       339.1       339.0       338.9       338.7       338.6       338.3       338.1       337.8       337.4    
        337.0       336.5       336.0       335.4       334.7       333.9       333.1       332.1       331.0       329.7    
        328.3       326.7       324.8       322.7       320.1    
  20    339.1       339.1       339.0       338.9       338.8       338.6       338.3       338.1       337.8       337.4    
        337.0       336.5       336.0       335.4       334.7       333.9       333.1       332.1       331.0       329.7    
        328.3       326.7       324.8       322.7       320.1    
  21    339.1       339.1       339.0       338.9       338.8       338.6       338.3       338.1       337.8       337.4    
        337.0       336.5       336.0       335.4       334.7       333.9       333.1       332.1       331.0       329.7    
        328.3       326.7       324.8       322.7       320.1    
  22    339.1       339.1       339.0       338.9       338.8       338.6       338.4       338.1       337.8       337.4    
        337.0       336.5       336.0       335.4       334.7       334.0       333.1       332.1       331.0       329.7    
        328.3       326.7       324.8       322.7       320.1    
  23    339.1       339.1       339.0       338.9       338.8       338.6       338.4       338.1       337.8       337.4    
        337.0       336.5       336.0       335.4       334.7       334.0       333.1       332.1       331.0       329.7    
        328.3       326.7       324.8       322.7       320.1    
  24    339.1       339.1       339.0       338.9       338.8       338.6       338.4       338.1       337.8       337.4    
        337.0       336.5       336.0       335.4       334.7       334.0       333.1       332.1       331.0       329.7    
        328.3       326.7       324.8       322.7       320.1    
  25    339.1       339.1       339.0       338.9       338.8       338.6       338.4       338.1       337.8       337.4    
        337.0       336.6       336.0       335.4       334.7       334.0       333.1       332.1       331.0       329.7    
        328.3       326.7       324.8       322.7       320.1    
1
              HEAD IN LAYER   2 AT END OF TIME STEP   6 IN STRESS PERIOD    2
  ---------------------------------------------------------------------------

            1           2           3           4           5           6           7           8           9          10
           11          12          13          14          15          16          17          18          19          20
           21          22          23          24          25
 ........................................................................................................................
   1    339.1       339.1       339.0       338.9       338.7       338.6       338.3       338.1       337.8       337.4    
        337.0       336.5       336.0       335.4       334.7       333.9       333.1       332.1       331.0       329.7    
        328.3       326.7       324.8       322.7       320.3    
   2    339.1       339.1       339.0       338.9       338.7       338.6       338.3       338.1       337.8       337.4    
        337.0       336.5       336.0       335.4       334.7       333.9       333.1       332.1       331.0       329.7    
        328.3       326.7       324.8       322.7       320.3    
   3    339.1       339.1       339.0       338.9       338.7       338.6       338.3       338.1       337.8       337.4    
        337.0       336.5       336.0       335.4       334.7       333.9       333.1       332.1       331.0       329.7    
        328.3       326.7       324.8       322.7       320.3    
   4    339.1       339.1       339.0       338.9       338.7       338.6       338.3       338.1       337.8       337.4    
        337.0       336.5       336.0       335.4       334.7       333.9       333.1       332.1       331.0       329.7    
        328.3       326.7       324.8       322.7       320.3    
   5    339.1       339.1       339.0       338.9       338.7       338.5       338.3       338.1       337.7       337.4    
        337.0       336.5       336.0       335.4       334.7       333.9       333.1       332.1       331.0       329.7    
        328.3       326.7       324.8       322.7       320.3    
   6    339.1       339.1       339.0       338.9       338.7       338.5       338.3       338.1       337.7       337.4    
        337.0       336.5       336.0       335.4       334.7       333.9       333.1       332.1       331.0       329.7    
        328.3       326.7       324.8       322.7       320.3    
   7    339.1       339.0       339.0       338.9       338.7       338.5       338.3       338.0       337.7       337.4    
        337.0       336.5       336.0       335.4       334.7       333.9       333.0       332.1       331.0       329.7    
        328.3       326.7       324.8       322.7       320.3    
   8    339.1       339.0       339.0       338.9       338.7       338.5       338.3       338.0       337.7       337.4    
        336.9       336.5       335.9       335.3       334.7       333.9       333.0       332.1       331.0       329.7    
        328.3       326.7       324.8       322.7       320.3    
   9    339.1       339.0       339.0       338.9       338.7       338.5       338.3       338.0       337.7       337.3    
        336.9       336.5       335.9       335.3       334.6       333.9       333.0       332.1       331.0       329.7    
        328.3       326.7       324.8       322.7       320.3    
  10    339.1       339.0       339.0       338.9       338.7       338.5       338.3       338.0       337.7       337.3    
        336.9       336.4       335.9       335.3       334.6       333.9       333.0       332.0       330.9       329.7    
        328.3       326.7       324.8       322.7       320.3    
  11    339.1       339.0       339.0       338.8       338.7       338.5       338.3       338.0       337.7       337.3    
        336.9       336.4       335.9       335.3       334.6       333.9       333.0       332.0       330.9       329.7    
        328.3       326.7       324.8       322.7       320.3    
  12    339.1       339.0       339.0       338.8       338.7       338.5       338.3       338.0       337.7       337.3    
        336.9       336.4       335.9       335.3       334.6       333.9       333.0       332.0       330.9       329.7    
        328.3       326.7       324.8       322.7       320.3    
  13    339.1       339.0       339.0       338.8       338.7       338.5       338.3       338.0       337.7       337.3    
        336.9       336.4       335.9       335.3       334.6       333.9       333.0       332.0       330.9       329.7    
        328.3       326.7       324.8       322.7       320.3    
  14    339.1       339.0       339.0       338.8       338.7       338.5       338.3       338.0       337.7       337.3    
        336.9       336.4       335.9       335.3       334.6       333.9       333.0       332.0       330.9       329.7    
        328.3       326.7       324.8       322.7       320.3    
  15    339.1       339.0       339.0       338.8       338.7       338.5       338.3       338.0       337.7       337.3    
        336.9       336.4       335.9       335.3       334.6       333.9       333.0       332.0       330.9       329.7    
        328.3       326.7       324.8       322.7       320.3    
  16    339.1       339.0       339.0       338.9       338.7       338.5       338.3       338.0       337.7       337.3    
        336.9       336.4       335.9       335.3       334.6       333.9       333.0       332.0       330.9       329.7    
        328.3       326.7       324.8       322.7       320.3    
  17    339.1       339.0       339.0       338.9       338.7       338.5       338.3       338.0       337.7       337.3    
        336.9       336.5       335.9       335.3       334.6       333.9       333.0       332.1       331.0       329.7    
        328.3       326.7       324.8       322.7       320.3    
  18    339.1       339.0       339.0       338.9       338.7       338.5       338.3       338.0       337.7       337.4    
        336.9       336.5       335.9       335.3       334.7       333.9       333.0       332.1       331.0       329.7    
        328.3       326.7       324.8       322.7       320.3    
  19    339.1       339.0       339.0       338.9       338.7       338.5       338.3       338.0       337.7       337.4    
        337.0       336.5       336.0       335.4       334.7       333.9       333.0       332.1       331.0       329.7    
        328.3       326.7       324.8       322.7       320.3    
  20    339.1       339.1       339.0       338.9       338.7       338.5       338.3       338.1       337.7       337.4    
        337.0       336.5       336.0       335.4       334.7       333.9       333.1       332.1       331.0       329.7    
        328.3       326.7       324.8       322.7       320.3    
  21    339.1       339.1       339.0       338.9       338.7       338.5       338.3       338.1       337.7       337.4    
        337.0       336.5       336.0       335.4       334.7       333.9       333.1       332.1       331.0       329.7    
        328.3       326.7       324.8       322.7       320.3    
  22    339.1       339.1       339.0       338.9       338.7       338.6       338.3       338.1       337.8       337.4    
        337.0       336.5       336.0       335.4       334.7       333.9       333.1       332.1       331.0       329.7    
        328.3       326.7       324.8       322.7       320.3    
  23    339.1       339.1       339.0       338.9       338.7       338.6       338.3       338.1       337.8       337.4    
        337.0       336.5       336.0       335.4       334.7       333.9       333.1       332.1       331.0       329.7    
        328.3       326.7       324.8       322.7       320.3    
  24    339.1       339.1       339.0       338.9       338.7       338.6       338.3       338.1       337.8       337.4    
        337.0       336.5       336.0       335.4       334.7       333.9       333.1       332.1       331.0       329.7    
        328.3       326.7       324.8       322.7       320.3    
  25    339.1       339.1       339.0       338.9       338.7       338.6       338.3       338.1       337.8       337.4    
        337.0       336.5       336.0       335.4       334.7       333.9       333.1       332.1       331.0       329.7    
        328.3       326.7       324.8       322.7       320.3    
1
              HEAD IN LAYER   3 AT END OF TIME STEP   6 IN STRESS PERIOD    2
  ---------------------------------------------------------------------------

            1           2           3           4           5           6           7           8           9          10
           11          12          13          14          15          16          17          18          19          20
           21          22          23          24          25
 ........................................................................................................................
   1    335.4       335.4       335.4       335.3       335.2       335.1       334.9       334.8       334.6       334.4    
        334.1       333.8       333.5       333.2       332.8       332.4       331.9       331.3       330.7       330.1    
        329.3       328.5       327.5       326.4       325.3    
   2    335.4       335.4       335.4       335.3       335.2       335.1       334.9       334.8       334.6       334.4    
        334.1       333.8       333.5       333.2       332.8       332.3       331.9       331.3       330.7       330.1    
        329.3       328.5       327.5       326.4       325.2    
   3    335.4       335.4       335.4       335.3       335.2       335.1       334.9       334.8       334.6       334.3    
        334.1       333.8       333.5       333.2       332.8       332.3       331.9       331.3       330.7       330.1    
        329.3       328.5       327.5       326.4       325.2    
   4    335.4       335.4       335.4       335.3       335.2       335.1       334.9       334.7       334.6       334.3    
        334.1       333.8       333.5       333.1       332.7       332.3       331.8       331.3       330.7       330.1    
        329.3       328.5       327.5       326.4       325.2    
   5    335.4       335.4       335.3       335.3       335.2       335.1       334.9       334.7       334.5       334.3    
        334.1       333.8       333.5       333.1       332.7       332.3       331.8       331.3       330.7       330.0    
        329.3       328.5       327.5       326.4       325.2    
   6    335.4       335.4       335.3       335.3       335.2       335.0       334.9       334.7       334.5       334.3    
        334.0       333.7       333.4       333.1       332.7       332.3       331.8       331.3       330.7       330.0    
        329.3       328.4       327.5       326.4       325.2    
   7    335.4       335.4       335.3       335.3       335.2       335.0       334.9       334.7       334.5       334.2    
        334.0       333.7       333.4       333.0       332.7       332.2       331.8       331.3       330.7       330.0    
        329.3       328.4       327.5       326.4       325.2    
   8    335.4       335.4       335.3       335.2       335.1       335.0       334.8       334.7       334.5       334.2    
        333.9       333.6       333.3       333.0       332.6       332.2       331.7       331.2       330.7       330.0    
        329.3       328.4       327.5       326.4       325.2    
   9    335.4       335.4       335.3       335.2       335.1       335.0       334.8       334.6       334.4       334.2    
        333.9       333.6       333.3       332.9       332.6       332.2       331.7       331.2       330.6       330.0    
        329.2       328.4       327.5       326.4       325.2    
  10    335.4       335.4       335.3       335.2       335.1       335.0       334.8       334.6       334.4       334.1    
        333.8       333.5       333.2       332.8       332.5       332.1       331.7       331.2       330.6       330.0    
        329.2       328.4       327.5       326.4       325.2    
  11    335.4       335.3       335.3       335.2       335.1       335.0       334.8       334.6       334.3       334.1    
        333.8       333.4       333.0       332.7       332.4       332.1       331.6       331.2       330.6       330.0    
        329.2       328.4       327.5       326.4       325.2    
  12    335.4       335.3       335.3       335.2       335.1       335.0       334.8       334.6       334.3       334.0    
        333.7       333.3       332.8       332.6       332.4       332.0       331.6       331.1       330.6       329.9    
        329.2       328.4       327.5       326.4       325.2    
  13    335.4       335.3       335.3       335.2       335.1       335.0       334.8       334.6       334.3       334.0    
        333.6       333.1       332.3       332.5       332.3       332.0       331.6       331.1       330.6       329.9    
        329.2       328.4       327.5       326.4       325.2    
  14    335.4       335.3       335.3       335.2       335.1       335.0       334.8       334.6       334.3       334.0    
        333.7       333.3       332.8       332.6       332.4       332.0       331.6       331.1       330.6       329.9    
        329.2       328.4       327.5       326.4       325.2    
  15    335.4       335.3       335.3       335.2       335.1       335.0       334.8       334.6       334.3       334.1    
        333.8       333.4       333.0       332.7       332.4       332.1       331.6       331.2       330.6       330.0    
        329.2       328.4       327.5       326.4       325.2    
  16    335.4       335.4       335.3       335.2       335.1       335.0       334.8       334.6       334.4       334.1    
        333.8       333.5       333.2       332.8       332.5       332.1       331.7       331.2       330.6       330.0    
        329.2       328.4       327.5       326.4       325.2    
  17    335.4       335.4       335.3       335.2       335.1       335.0       334.8       334.6       334.4       334.2    
        333.9       333.6       333.3       332.9       332.6       332.2       331.7       331.2       330.6       330.0    
        329.2       328.4       327.5       326.4       325.2    
  18    335.4       335.4       335.3       335.2       335.1       335.0       334.8       334.7       334.5       334.2    
        333.9       333.6       333.3       333.0       332.6       332.2       331.7       331.2       330.7       330.0    
        329.3       328.4       327.5       326.4       325.2    
  19    335.4       335.4       335.3       335.3       335.2       335.0       334.9       334.7       334.5       334.2    
        334.0       333.7       333.4       333.0       332.7       332.2       331.8       331.3       330.7       330.0    
        329.3       328.4       327.5       326.4       325.2    
  20    335.4       335.4       335.3       335.3       335.2       335.0       334.9       334.7       334.5       334.3    
        334.0       333.7       333.4       333.1       332.7       332.3       331.8       331.3       330.7       330.0    
        329.3       328.4       327.5       326.4       325.2    
  21    335.4       335.4       335.3       335.3       335.2       335.1       334.9       334.7       334.5       334.3    
        334.1       333.8       333.5       333.1       332.7       332.3       331.8       331.3       330.7       330.0    
        329.3       328.5       327.5       326.4       325.2    
  22    335.4       335.4       335.4       335.3       335.2       335.1       334.9       334.7       334.6       334.3    
        334.1       333.8       333.5       333.1       332.7       332.3       331.8       331.3       330.7       330.1    
        329.3       328.5       327.5       326.4       325.2    
  23    335.4       335.4       335.4       335.3       335.2       335.1       334.9       334.8       334.6       334.3    
        334.1       333.8       333.5       333.2       332.8       332.3       331.9       331.3       330.7       330.1    
        329.3       328.5       327.5       326.4       325.2    
  24    335.4       335.4       335.4       335.3       335.2       335.1       334.9       334.8       334.6       334.4    
        334.1       333.8       333.5       333.2       332.8       332.3       331.9       331.3       330.7       330.1    
        329.3       328.5       327.5       326.4       325.2    
  25    335.4       335.4       335.4       335.3       335.2       335.1       334.9       334.8       334.6       334.4    
        334.1       333.8       333.5       333.2       332.8       332.4       331.9       331.3       330.7       330.1    
        329.3       328.5       327.5       326.4       325.3    
1
              HEAD IN LAYER   4 AT END OF TIME STEP   6 IN STRESS PERIOD    2
  ---------------------------------------------------------------------------

            1           2           3           4           5           6           7           8           9          10
           11          12          13          14          15          16          17          18          19          20
           21          22          23          24          25
 ........................................................................................................................
   1    331.8       331.8       331.7       331.7       331.7       331.6       331.5       331.5       331.4       331.3    
        331.2       331.1       331.0       330.9       330.8       330.8       330.7       330.6       330.5       330.4    
        330.3       330.3       330.2       330.2       330.2    
   2    331.8       331.8       331.7       331.7       331.7       331.6       331.5       331.5       331.4       331.3    
        331.2       331.1       331.0       330.9       330.8       330.7       330.7       330.6       330.5       330.4    
        330.3       330.3       330.2       330.2       330.1    
   3    331.8       331.8       331.7       331.7       331.6       331.6       331.5       331.5       331.4       331.3    
        331.2       331.1       331.0       330.9       330.8       330.7       330.6       330.6       330.5       330.4    
        330.3       330.3       330.2       330.2       330.1    
   4    331.8       331.7       331.7       331.7       331.6       331.6       331.5       331.4       331.3       331.3    
        331.2       331.1       331.0       330.9       330.8       330.7       330.6       330.5       330.5       330.4    
        330.3       330.3       330.2       330.2       330.1    
   5    331.8       331.7       331.7       331.7       331.6       331.6       331.5       331.4       331.3       331.2    
        331.1       331.0       330.9       330.8       330.8       330.7       330.6       330.5       330.4       330.4    
        330.3       330.2       330.2       330.1       330.1    
   6    331.7       331.7       331.7       331.7       331.6       331.5       331.5       331.4       331.3       331.2    
        331.1       331.0       330.9       330.8       330.7       330.6       330.6       330.5       330.4       330.3    
        330.3       330.2       330.2       330.1       330.1    
   7    331.7       331.7       331.7       331.6       331.6       331.5       331.4       331.3       331.2       331.1    
        331.0       330.9       330.8       330.7       330.6       330.6       330.5       330.4       330.4       330.3    
        330.3       330.2       330.2       330.1       330.1    
   8    331.7       331.7       331.7       331.6       331.6       331.5       331.4       331.3       331.2       331.1    
        330.9       330.8       330.7       330.6       330.6       330.5       330.5       330.4       330.3       330.3    
        330.2       330.2       330.1       330.1       330.1    
   9    331.7       331.7       331.7       331.6       331.5       331.5       331.4       331.2       331.1       331.0    
        330.8       330.7       330.6       330.5       330.5       330.4       330.4       330.4       330.3       330.3    
        330.2       330.2       330.1       330.1       330.1    
  10    331.7       331.7       331.6       331.6       331.5       331.4       331.3       331.2       331.1       330.9    
        330.7       330.6       330.4       330.4       330.4       330.3       330.3       330.3       330.3       330.2    
        330.2       330.2       330.1       330.1       330.1    
  11    331.7       331.7       331.6       331.6       331.5       331.4       331.3       331.2       331.0       330.8    
        330.6       330.4       330.2       330.2       330.2       330.3       330.3       330.3       330.2       330.2    
        330.2       330.1       330.1       330.1       330.1    
  12    331.7       331.7       331.6       331.6       331.5       331.4       331.3       331.1       331.0       330.7    
        330.5       330.1       329.8       329.9       330.1       330.2       330.2       330.2       330.2       330.2    
        330.2       330.1       330.1       330.1       330.1    
  13    331.7       331.7       331.6       331.6       331.5       331.4       331.3       331.1       330.9       330.7    
        330.4       329.8       328.7       329.7       330.0       330.1       330.2       330.2       330.2       330.2    
        330.2       330.1       330.1       330.1       330.1    
  14    331.7       331.7       331.6       331.6       331.5       331.4       331.3       331.1       331.0       330.7    
        330.5       330.1       329.8       329.9       330.1       330.2       330.2       330.2       330.2       330.2    
        330.2       330.1       330.1       330.1       330.1    
  15    331.7       331.7       331.6       331.6       331.5       331.4       331.3       331.2       331.0       330.8    
        330.6       330.4       330.2       330.2       330.2       330.3       330.3       330.3       330.2       330.2    
        330.2       330.1       330.1       330.1       330.1    
  16    331.7       331.7       331.6       331.6       331.5       331.4       331.3       331.2       331.1       330.9    
        330.7       330.6       330.4       330.4       330.4       330.3       330.3       330.3       330.3       330.2    
        330.2       330.2       330.1       330.1       330.1    
  17    331.7       331.7       331.7       331.6       331.5       331.5       331.4       331.2       331.1       331.0    
        330.8       330.7       330.6       330.5       330.5       330.4       330.4       330.4       330.3       330.3    
        330.2       330.2       330.1       330.1       330.1    
  18    331.7       331.7       331.7       331.6       331.6       331.5       331.4       331.3       331.2       331.1    
        330.9       330.8       330.7       330.6       330.6       330.5       330.5       330.4       330.3       330.3    
        330.2       330.2       330.1       330.1       330.1    
  19    331.7       331.7       331.7       331.6       331.6       331.5       331.4       331.3       331.2       331.1    
        331.0       330.9       330.8       330.7       330.6       330.6       330.5       330.4       330.4       330.3    
        330.3       330.2       330.2       330.1       330.1    
  20    331.7       331.7       331.7       331.7       331.6       331.5       331.5       331.4       331.3       331.2    
        331.1       331.0       330.9       330.8       330.7       330.6       330.6       330.5       330.4       330.3    
        330.3       330.2       330.2       330.1       330.1    
  21    331.8       331.7       331.7       331.7       331.6       331.6       331.5       331.4       331.3       331.2    
        331.1       331.0       330.9       330.8       330.8       330.7       330.6       330.5       330.4       330.4    
        330.3       330.2       330.2       330.1       330.1    
  22    331.8       331.7       331.7       331.7       331.6       331.6       331.5       331.4       331.3       331.3    
        331.2       331.1       331.0       330.9       330.8       330.7       330.6       330.5       330.5       330.4    
        330.3       330.3       330.2       330.2       330.1    
  23    331.8       331.8       331.7       331.7       331.6       331.6       331.5       331.5       331.4       331.3    
        331.2       331.1       331.0       330.9       330.8       330.7       330.6       330.6       330.5       330.4    
        330.3       330.3       330.2       330.2       330.1    
  24    331.8       331.8       331.7       331.7       331.7       331.6       331.5       331.5       331.4       331.3    
        331.2       331.1       331.0       330.9       330.8       330.7       330.7       330.6       330.5       330.4    
        330.3       330.3       330.2       330.2       330.1    
  25    331.8       331.8       331.7       331.7       331.7       331.6       331.5       331.5       331.4       331.3    
        331.2       331.1       331.0       330.9       330.8       330.8       330.7       330.6       330.5       330.4    
        330.3       330.3       330.2       330.2       330.2    
1
              HEAD IN LAYER   5 AT END OF TIME STEP   6 IN STRESS PERIOD    2
  ---------------------------------------------------------------------------

            1           2           3           4           5           6           7           8           9          10
           11          12          13          14          15          16          17          18          19          20
           21          22          23          24          25
 ........................................................................................................................
   1    331.8       331.8       331.7       331.7       331.7       331.6       331.5       331.5       331.4       331.3    
        331.2       331.1       331.0       330.9       330.8       330.8       330.7       330.6       330.5       330.4    
        330.3       330.3       330.2       330.2       330.2    
   2    331.8       331.8       331.7       331.7       331.6       331.6       331.5       331.5       331.4       331.3    
        331.2       331.1       331.0       330.9       330.8       330.7       330.7       330.6       330.5       330.4    
        330.3       330.3       330.2       330.2       330.2    
   3    331.8       331.7       331.7       331.7       331.6       331.6       331.5       331.4       331.4       331.3    
        331.2       331.1       331.0       330.9       330.8       330.7       330.6       330.6       330.5       330.4    
        330.3       330.3       330.2       330.2       330.2    
   4    331.8       331.7       331.7       331.7       331.6       331.6       331.5       331.4       331.3       331.3    
        331.2       331.1       331.0       330.9       330.8       330.7       330.6       330.5       330.5       330.4    
        330.3       330.3       330.2       330.2       330.1    
   5    331.7       331.7       331.7       331.7       331.6       331.6       331.5       331.4       331.3       331.2    
        331.1       331.0       330.9       330.8       330.8       330.7       330.6       330.5       330.4       330.4    
        330.3       330.2       330.2       330.2       330.1    
   6    331.7       331.7       331.7       331.6       331.6       331.5       331.5       331.4       331.3       331.2    
        331.1       331.0       330.9       330.8       330.7       330.6       330.6       330.5       330.4       330.3    
        330.3       330.2       330.2       330.1       330.1    
   7    331.7       331.7       331.7       331.6       331.6       331.5       331.4       331.3       331.2       331.1    
        331.0       330.9       330.8       330.7       330.6       330.6       330.5       330.4       330.4       330.3    
        330.3       330.2       330.2       330.1       330.1    
   8    331.7       331.7       331.7       331.6       331.6       331.5       331.4       331.3       331.2       331.1    
        330.9       330.8       330.7       330.6       330.6       330.5       330.5       330.4       330.3       330.3    
        330.2       330.2       330.1       330.1       330.1    
   9    331.7       331.7       331.6       331.6       331.5       331.4       331.4       331.2       331.1       331.0    
        330.8       330.7       330.6       330.5       330.5       330.4       330.4       330.4       330.3       330.3    
        330.2       330.2       330.1       330.1       330.1    
  10    331.7       331.7       331.6       331.6       331.5       331.4       331.3       331.2       331.1       330.9    
        330.7       330.6       330.4       330.4       330.4       330.3       330.3       330.3       330.3       330.2    
        330.2       330.2       330.1       330.1       330.1    
  11    331.7       331.7       331.6       331.6       331.5       331.4       331.3       331.2       331.0       330.8    
        330.6       330.4       330.2       330.2       330.2       330.3       330.3       330.3       330.2       330.2    
        330.2       330.1       330.1       330.1       330.1    
  12    331.7       331.7       331.6       331.6       331.5       331.4       331.3       331.1       330.9       330.7    
        330.5       330.1       329.8       329.9       330.1       330.2       330.2       330.2       330.2       330.2    
        330.2       330.1       330.1       330.1       330.1    
  13    331.7       331.6       331.6       331.6       331.5       331.4       331.3       331.1       330.9       330.7    
        330.4       329.9       329.0       329.7       330.0       330.1       330.2       330.2       330.2       330.2    
        330.2       330.1       330.1       330.1       330.1    
  14    331.7       331.7       331.6       331.6       331.5       331.4       331.3       331.1       330.9       330.7    
        330.5       330.1       329.8       329.9       330.1       330.2       330.2       330.2       330.2       330.2    
        330.2       330.1       330.1       330.1       330.1    
  15    331.7       331.7       331.6       331.6       331.5       331.4       331.3       331.2       331.0       330.8    
        330.6       330.4       330.2       330.2       330.2       330.3       330.3       330.3       330.2       330.2    
        330.2       330.1       330.1       330.1       330.1    
  16    331.7       331.7       331.6       331.6       331.5       331.4       331.3       331.2       331.1       330.9    
        330.7       330.6       330.4       330.4       330.4       330.3       330.3       330.3       330.3       330.2    
        330.2       330.2       330.1       330.1       330.1    
  17    331.7       331.7       331.6       331.6       331.5       331.4       331.4       331.2       331.1       331.0    
        330.8       330.7       330.6       330.5       330.5       330.4       330.4       330.4       330.3       330.3    
        330.2       330.2       330.1       330.1       330.1    
  18    331.7       331.7       331.7       331.6       331.6       331.5       331.4       331.3       331.2       331.1    
        330.9       330.8       330.7       330.6       330.6       330.5       330.5       330.4       330.3       330.3    
        330.2       330.2       330.1       330.1       330.1    
  19    331.7       331.7       331.7       331.6       331.6       331.5       331.4       331.3       331.2       331.1    
        331.0       330.9       330.8       330.7       330.6       330.6       330.5       330.4       330.4       330.3    
        330.3       330.2       330.2       330.1       330.1    
  20    331.7       331.7       331.7       331.6       331.6       331.5       331.5       331.4       331.3       331.2    
        331.1       331.0       330.9       330.8       330.7       330.6       330.6       330.5       330.4       330.3    
        330.3       330.2       330.2       330.1       330.1    
  21    331.7       331.7       331.7       331.7       331.6       331.6       331.5       331.4       331.3       331.2    
        331.1       331.0       330.9       330.8       330.8       330.7       330.6       330.5       330.4       330.4    
        330.3       330.2       330.2       330.2       330.1    
  22    331.8       331.7       331.7       331.7       331.6       331.6       331.5       331.4       331.3       331.3    
        331.2       331.1       331.0       330.9       330.8       330.7       330.6       330.5       330.5       330.4    
        330.3       330.3       330.2       330.2       330.1    
  23    331.8       331.7       331.7       331.7       331.6       331.6       331.5       331.4       331.4       331.3    
        331.2       331.1       331.0       330.9       330.8       330.7       330.6       330.6       330.5       330.4    
        330.3       330.3       330.2       330.2       330.2    
  24    331.8       331.8       331.7       331.7       331.6       331.6       331.5       331.5       331.4       331.3    
        331.2       331.1       331.0       330.9       330.8       330.7       330.7       330.6       330.5       330.4    
        330.3       330.3       330.2       330.2       330.2    
  25    331.8       331.8       331.7       331.7       331.7       331.6       331.5       331.5       331.4       331.3    
        331.2       331.1       331.0       330.9       330.8       330.8       330.7       330.6       330.5       330.4    
        330.3       330.3       330.2       330.2       330.2    

 HEAD WILL BE SAVED ON UNIT   50 AT END OF TIME STEP    6, STRESS PERIOD    2



         TIME SUMMARY AT END OF TIME STEP    6 IN STRESS PERIOD    2
                    SECONDS     MINUTES      HOURS       DAYS        YEARS
                    -----------------------------------------------------------
   TIME STEP LENGTH 5.78928E+07 9.64881E+05  16081.      670.06      1.8345    
 STRESS PERIOD TIME 1.58431E+08 2.64052E+06  44009.      1833.7      5.0204    
         TOTAL TIME 1.74384E+10 2.90641E+08 4.84401E+06 2.01834E+05  552.59    
1
 
 SOLVING FOR HEAD 
     1 CALLS TO PCG ROUTINE FOR TIME STEP   7 IN STRESS PERIOD    2
     1 TOTAL ITERATIONS

 MAXIMUM HEAD CHANGE FOR EACH ITERATION (1 INDICATES THE FIRST INNER ITERATION):

    HEAD CHANGE    HEAD CHANGE    HEAD CHANGE    HEAD CHANGE    HEAD CHANGE 
   LAYER,ROW,COL  LAYER,ROW,COL  LAYER,ROW,COL  LAYER,ROW,COL  LAYER,ROW,COL
 ---------------------------------------------------------------------------
  1  0.9001E-05
   (  5, 12, 14)

 MAXIMUM RESIDUAL FOR EACH ITERATION (1 INDICATES THE FIRST INNER ITERATION):

    RESIDUAL       RESIDUAL       RESIDUAL       RESIDUAL       RESIDUAL    
   LAYER,ROW,COL  LAYER,ROW,COL  LAYER,ROW,COL  LAYER,ROW,COL  LAYER,ROW,COL
 ---------------------------------------------------------------------------
  1 -0.5299    
   (  4, 13, 13)



 OUTPUT CONTROL FOR STRESS PERIOD    2   TIME STEP    7
    SAVE BUDGET
    PRINT HEAD FOR ALL LAYERS
    SAVE HEAD FOR ALL LAYERS
 UBDSV1 SAVING "         STORAGE" ON UNIT  53 AT TIME STEP  7, STRESS PERIOD   2
 UBDSV2 SAVING "   CONSTANT HEAD" ON UNIT  53 AT TIME STEP  7, STRESS PERIOD   2
 UBDSV1 SAVING "FLOW RIGHT FACE " ON UNIT  53 AT TIME STEP  7, STRESS PERIOD   2
 UBDSV1 SAVING "FLOW FRONT FACE " ON UNIT  53 AT TIME STEP  7, STRESS PERIOD   2
 UBDSV1 SAVING "FLOW LOWER FACE " ON UNIT  53 AT TIME STEP  7, STRESS PERIOD   2
 UBDSV4 SAVING "   RIVER LEAKAGE" ON UNIT  53 AT TIME STEP  7, STRESS PERIOD   2
 UBDSV3 SAVING "        RECHARGE" ON UNIT  53 AT TIME STEP  7, STRESS PERIOD   2
1
              HEAD IN LAYER   1 AT END OF TIME STEP   7 IN STRESS PERIOD    2
  ---------------------------------------------------------------------------

            1           2           3           4           5           6           7           8           9          10
           11          12          13          14          15          16          17          18          19          20
           21          22          23          24          25
 ........................................................................................................................
   1    339.1       339.1       339.0       338.9       338.8       338.6       338.4       338.1       337.8       337.4    
        337.0       336.6       336.0       335.4       334.7       334.0       333.1       332.1       331.0       329.7    
        328.3       326.7       324.8       322.7       320.1    
   2    339.1       339.1       339.0       338.9       338.8       338.6       338.4       338.1       337.8       337.4    
        337.0       336.5       336.0       335.4       334.7       334.0       333.1       332.1       331.0       329.7    
        328.3       326.7       324.8       322.7       320.1    
   3    339.1       339.1       339.0       338.9       338.8       338.6       338.4       338.1       337.8       337.4    
        337.0       336.5       336.0       335.4       334.7       334.0       333.1       332.1       331.0       329.7    
        328.3       326.7       324.8       322.7       320.1    
   4    339.1       339.1       339.0       338.9       338.8       338.6       338.4       338.1       337.8       337.4    
        337.0       336.5       336.0       335.4       334.7       334.0       333.1       332.1       331.0       329.7    
        328.3       326.7       324.8       322.7       320.1    
   5    339.1       339.1       339.0       338.9       338.8       338.6       338.3       338.1       337.8       337.4    
        337.0       336.5       336.0       335.4       334.7       333.9       333.1       332.1       331.0       329.7    
        328.3       326.7       324.8       322.7       320.1    
   6    339.1       339.1       339.0       338.9       338.8       338.6       338.3       338.1       337.8       337.4    
        337.0       336.5       336.0       335.4       334.7       333.9       333.1       332.1       331.0       329.7    
        328.3       326.7       324.8       322.7       320.1    
   7    339.1       339.1       339.0       338.9       338.7       338.6       338.3       338.1       337.8       337.4    
        337.0       336.5       336.0       335.4       334.7       333.9       333.1       332.1       331.0       329.7    
        328.3       326.7       324.8       322.7       320.1    
   8    339.1       339.1       339.0       338.9       338.7       338.6       338.3       338.1       337.7       337.4    
        337.0       336.5       336.0       335.4       334.7       333.9       333.1       332.1       331.0       329.7    
        328.3       326.7       324.8       322.7       320.1    
   9    339.1       339.1       339.0       338.9       338.7       338.5       338.3       338.0       337.7       337.4    
        337.0       336.5       335.9       335.3       334.7       333.9       333.0       332.1       331.0       329.7    
        328.3       326.7       324.8       322.7       320.1    
  10    339.1       339.1       339.0       338.9       338.7       338.5       338.3       338.0       337.7       337.4    
        336.9       336.5       335.9       335.3       334.7       333.9       333.0       332.1       331.0       329.7    
        328.3       326.7       324.8       322.7       320.1    
  11    339.1       339.1       339.0       338.9       338.7       338.5       338.3       338.0       337.7       337.3    
        336.9       336.5       335.9       335.3       334.6       333.9       333.0       332.1       331.0       329.7    
        328.3       326.7       324.8       322.7       320.1    
  12    339.1       339.1       339.0       338.9       338.7       338.5       338.3       338.0       337.7       337.3    
        336.9       336.4       335.9       335.3       334.6       333.9       333.0       332.0       331.0       329.7    
        328.3       326.7       324.8       322.7       320.1    
  13    339.1       339.1       339.0       338.9       338.7       338.5       338.3       338.0       337.7       337.3    
        336.9       336.4       335.9       335.3       334.6       333.9       333.0       332.0       330.9       329.7    
        328.3       326.7       324.8       322.7       320.1    
  14    339.1       339.1       339.0       338.9       338.7       338.5       338.3       338.0       337.7       337.3    
        336.9       336.4       335.9       335.3       334.6       333.9       333.0       332.0       331.0       329.7    
        328.3       326.7       324.8       322.7       320.1    
  15    339.1       339.1       339.0       338.9       338.7       338.5       338.3       338.0       337.7       337.3    
        336.9       336.5       335.9       335.3       334.6       333.9       333.0       332.1       331.0       329.7    
        328.3       326.7       324.8       322.7       320.1    
  16    339.1       339.1       339.0       338.9       338.7       338.5       338.3       338.0       337.7       337.4    
        336.9       336.5       335.9       335.3       334.7       333.9       333.0       332.1       331.0       329.7    
        328.3       326.7       324.8       322.7       320.1    
  17    339.1       339.1       339.0       338.9       338.7       338.5       338.3       338.0       337.7       337.4    
        337.0       336.5       335.9       335.3       334.7       333.9       333.0       332.1       331.0       329.7    
        328.3       326.7       324.8       322.7       320.1    
  18    339.1       339.1       339.0       338.9       338.7       338.6       338.3       338.1       337.7       337.4    
        337.0       336.5       336.0       335.4       334.7       333.9       333.1       332.1       331.0       329.7    
        328.3       326.7       324.8       322.7       320.1    
  19    339.1       339.1       339.0       338.9       338.7       338.6       338.3       338.1       337.8       337.4    
        337.0       336.5       336.0       335.4       334.7       333.9       333.1       332.1       331.0       329.7    
        328.3       326.7       324.8       322.7       320.1    
  20    339.1       339.1       339.0       338.9       338.8       338.6       338.3       338.1       337.8       337.4    
        337.0       336.5       336.0       335.4       334.7       333.9       333.1       332.1       331.0       329.7    
        328.3       326.7       324.8       322.7       320.1    
  21    339.1       339.1       339.0       338.9       338.8       338.6       338.3       338.1       337.8       337.4    
        337.0       336.5       336.0       335.4       334.7       333.9       333.1       332.1       331.0       329.7    
        328.3       326.7       324.8       322.7       320.1    
  22    339.1       339.1       339.0       338.9       338.8       338.6       338.4       338.1       337.8       337.4    
        337.0       336.5       336.0       335.4       334.7       334.0       333.1       332.1       331.0       329.7    
        328.3       326.7       324.8       322.7       320.1    
  23    339.1       339.1       339.0       338.9       338.8       338.6       338.4       338.1       337.8       337.4    
        337.0       336.5       336.0       335.4       334.7       334.0       333.1       332.1       331.0       329.7    
        328.3       326.7       324.8       322.7       320.1    
  24    339.1       339.1       339.0       338.9       338.8       338.6       338.4       338.1       337.8       337.4    
        337.0       336.5       336.0       335.4       334.7       334.0       333.1       332.1       331.0       329.7    
        328.3       326.7       324.8       322.7       320.1    
  25    339.1       339.1       339.0       338.9       338.8       338.6       338.4       338.1       337.8       337.4    
        337.0       336.6       336.0       335.4       334.7       334.0       333.1       332.1       331.0       329.7    
        328.3       326.7       324.8       322.7       320.1    
1
              HEAD IN LAYER   2 AT END OF TIME STEP   7 IN STRESS PERIOD    2
  ---------------------------------------------------------------------------

            1           2           3           4           5           6           7           8           9          10
           11          12          13          14          15          16          17          18          19          20
           21          22          23          24          25
 ........................................................................................................................
   1    339.1       339.1       339.0       338.9       338.7       338.6       338.3       338.1       337.8       337.4    
        337.0       336.5       336.0       335.4       334.7       333.9       333.1       332.1       331.0       329.7    
        328.3       326.7       324.8       322.7       320.3    
   2    339.1       339.1       339.0       338.9       338.7       338.6       338.3       338.1       337.8       337.4    
        337.0       336.5       336.0       335.4       334.7       333.9       333.1       332.1       331.0       329.7    
        328.3       326.7       324.8       322.7       320.3    
   3    339.1       339.1       339.0       338.9       338.7       338.6       338.3       338.1       337.8       337.4    
        337.0       336.5       336.0       335.4       334.7       333.9       333.1       332.1       331.0       329.7    
        328.3       326.7       324.8       322.7       320.3    
   4    339.1       339.1       339.0       338.9       338.7       338.6       338.3       338.1       337.8       337.4    
        337.0       336.5       336.0       335.4       334.7       333.9       333.1       332.1       331.0       329.7    
        328.3       326.7       324.8       322.7       320.3    
   5    339.1       339.1       339.0       338.9       338.7       338.5       338.3       338.1       337.7       337.4    
        337.0       336.5       336.0       335.4       334.7       333.9       333.1       332.1       331.0       329.7    
        328.3       326.7       324.8       322.7       320.3    
   6    339.1       339.1       339.0       338.9       338.7       338.5       338.3       338.1       337.7       337.4    
        337.0       336.5       336.0       335.4       334.7       333.9       333.1       332.1       331.0       329.7    
        328.3       326.7       324.8       322.7       320.3    
   7    339.1       339.0       339.0       338.9       338.7       338.5       338.3       338.0       337.7       337.4    
        337.0       336.5       336.0       335.4       334.7       333.9       333.0       332.1       331.0       329.7    
        328.3       326.7       324.8       322.7       320.3    
   8    339.1       339.0       339.0       338.9       338.7       338.5       338.3       338.0       337.7       337.4    
        336.9       336.5       335.9       335.3       334.7       333.9       333.0       332.1       331.0       329.7    
        328.3       326.7       324.8       322.7       320.3    
   9    339.1       339.0       339.0       338.9       338.7       338.5       338.3       338.0       337.7       337.3    
        336.9       336.5       335.9       335.3       334.6       333.9       333.0       332.1       331.0       329.7    
        328.3       326.7       324.8       322.7       320.3    
  10    339.1       339.0       339.0       338.9       338.7       338.5       338.3       338.0       337.7       337.3    
        336.9       336.4       335.9       335.3       334.6       333.9       333.0       332.0       330.9       329.7    
        328.3       326.7       324.8       322.7       320.3    
  11    339.1       339.0       339.0       338.8       338.7       338.5       338.3       338.0       337.7       337.3    
        336.9       336.4       335.9       335.3       334.6       333.9       333.0       332.0       330.9       329.7    
        328.3       326.7       324.8       322.7       320.3    
  12    339.1       339.0       339.0       338.8       338.7       338.5       338.3       338.0       337.7       337.3    
        336.9       336.4       335.9       335.3       334.6       333.9       333.0       332.0       330.9       329.7    
        328.3       326.7       324.8       322.7       320.3    
  13    339.1       339.0       339.0       338.8       338.7       338.5       338.3       338.0       337.7       337.3    
        336.9       336.4       335.9       335.3       334.6       333.9       333.0       332.0       330.9       329.7    
        328.3       326.7       324.8       322.7       320.3    
  14    339.1       339.0       339.0       338.8       338.7       338.5       338.3       338.0       337.7       337.3    
        336.9       336.4       335.9       335.3       334.6       333.9       333.0       332.0       330.9       329.7    
        328.3       326.7       324.8       322.7       320.3    
  15    339.1       339.0       339.0       338.8       338.7       338.5       338.3       338.0       337.7       337.3    
        336.9       336.4       335.9       335.3       334.6       333.9       333.0       332.0       330.9       329.7    
        328.3       326.7       324.8       322.7       320.3    
  16    339.1       339.0       339.0       338.9       338.7       338.5       338.3       338.0       337.7       337.3    
        336.9       336.4       335.9       335.3       334.6       333.9       333.0       332.0       330.9       329.7    
        328.3       326.7       324.8       322.7       320.3    
  17    339.1       339.0       339.0       338.9       338.7       338.5       338.3       338.0       337.7       337.3    
        336.9       336.5       335.9       335.3       334.6       333.9       333.0       332.1       331.0       329.7    
        328.3       326.7       324.8       322.7       320.3    
  18    339.1       339.0       339.0       338.9       338.7       338.5       338.3       338.0       337.7       337.4    
        336.9       336.5       335.9       335.3       334.7       333.9       333.0       332.1       331.0       329.7    
        328.3       326.7       324.8       322.7       320.3    
  19    339.1       339.0       339.0       338.9       338.7       338.5       338.3       338.0       337.7       337.4    
        337.0       336.5       336.0       335.4       334.7       333.9       333.0       332.1       331.0       329.7    
        328.3       326.7       324.8       322.7       320.3    
  20    339.1       339.1       339.0       338.9       338.7       338.5       338.3       338.1       337.7       337.4    
        337.0       336.5       336.0       335.4       334.7       333.9       333.1       332.1       331.0       329.7    
        328.3       326.7       324.8       322.7       320.3    
  21    339.1       339.1       339.0       338.9       338.7       338.5       338.3       338.1       337.7       337.4    
        337.0       336.5       336.0       335.4       334.7       333.9       333.1       332.1       331.0       329.7    
        328.3       326.7       324.8       322.7       320.3    
  22    339.1       339.1       339.0       338.9       338.7       338.6       338.3       338.1       337.8       337.4    
        337.0       336.5       336.0       335.4       334.7       333.9       333.1       332.1       331.0       329.7    
        328.3       326.7       324.8       322.7       320.3    
  23    339.1       339.1       339.0       338.9       338.7       338.6       338.3       338.1       337.8       337.4    
        337.0       336.5       336.0       335.4       334.7       333.9       333.1       332.1       331.0       329.7    
        328.3       326.7       324.8       322.7       320.3    
  24    339.1       339.1       339.0       338.9       338.7       338.6       338.3       338.1       337.8       337.4    
        337.0       336.5       336.0       335.4       334.7       333.9       333.1       332.1       331.0       329.7    
        328.3       326.7       324.8       322.7       320.3    
  25    339.1       339.1       339.0       338.9       338.7       338.6       338.3       338.1       337.8       337.4    
        337.0       336.5       336.0       335.4       334.7       333.9       333.1       332.1       331.0       329.7    
        328.3       326.7       324.8       322.7       320.3    
1
              HEAD IN LAYER   3 AT END OF TIME STEP   7 IN STRESS PERIOD    2
  ---------------------------------------------------------------------------

            1           2           3           4           5           6           7           8           9          10
           11          12          13          14          15          16          17          18          19          20
           21          22          23          24          25
 ........................................................................................................................
   1    335.4       335.4       335.4       335.3       335.2       335.1       334.9       334.8       334.6       334.4    
        334.1       333.8       333.5       333.2       332.8       332.4       331.9       331.3       330.7       330.1    
        329.3       328.5       327.5       326.4       325.3    
   2    335.4       335.4       335.4       335.3       335.2       335.1       334.9       334.8       334.6       334.4    
        334.1       333.8       333.5       333.2       332.8       332.3       331.9       331.3       330.7       330.1    
        329.3       328.5       327.5       326.4       325.2    
   3    335.4       335.4       335.4       335.3       335.2       335.1       334.9       334.8       334.6       334.3    
        334.1       333.8       333.5       333.2       332.8       332.3       331.9       331.3       330.7       330.1    
        329.3       328.5       327.5       326.4       325.2    
   4    335.4       335.4       335.4       335.3       335.2       335.1       334.9       334.7       334.6       334.3    
        334.1       333.8       333.5       333.1       332.7       332.3       331.8       331.3       330.7       330.1    
        329.3       328.5       327.5       326.4       325.2    
   5    335.4       335.4       335.3       335.3       335.2       335.1       334.9       334.7       334.5       334.3    
        334.1       333.8       333.5       333.1       332.7       332.3       331.8       331.3       330.7       330.0    
        329.3       328.5       327.5       326.4       325.2    
   6    335.4       335.4       335.3       335.3       335.2       335.0       334.9       334.7       334.5       334.3    
        334.0       333.7       333.4       333.1       332.7       332.3       331.8       331.3       330.7       330.0    
        329.3       328.4       327.5       326.4       325.2    
   7    335.4       335.4       335.3       335.3       335.2       335.0       334.9       334.7       334.5       334.2    
        334.0       333.7       333.4       333.0       332.7       332.2       331.8       331.3       330.7       330.0    
        329.3       328.4       327.5       326.4       325.2    
   8    335.4       335.4       335.3       335.2       335.1       335.0       334.8       334.7       334.5       334.2    
        333.9       333.6       333.3       333.0       332.6       332.2       331.7       331.2       330.7       330.0    
        329.3       328.4       327.5       326.4       325.2    
   9    335.4       335.4       335.3       335.2       335.1       335.0       334.8       334.6       334.4       334.2    
        333.9       333.6       333.3       332.9       332.6       332.2       331.7       331.2       330.6       330.0    
        329.2       328.4       327.5       326.4       325.2    
  10    335.4       335.4       335.3       335.2       335.1       335.0       334.8       334.6       334.4       334.1    
        333.8       333.5       333.2       332.8       332.5       332.1       331.7       331.2       330.6       330.0    
        329.2       328.4       327.5       326.4       325.2    
  11    335.4       335.3       335.3       335.2       335.1       335.0       334.8       334.6       334.3       334.1    
        333.8       333.4       333.0       332.7       332.4       332.1       331.6       331.2       330.6       330.0    
        329.2       328.4       327.5       326.4       325.2    
  12    335.4       335.3       335.3       335.2       335.1       335.0       334.8       334.6       334.3       334.0    
        333.7       333.3       332.8       332.6       332.4       332.0       331.6       331.1       330.6       329.9    
        329.2       328.4       327.5       326.4       325.2    
  13    335.4       335.3       335.3       335.2       335.1       335.0       334.8       334.6       334.3       334.0    
        333.6       333.1       332.3       332.5       332.3       332.0       331.6       331.1       330.6       329.9    
        329.2       328.4       327.5       326.4       325.2    
  14    335.4       335.3       335.3       335.2       335.1       335.0       334.8       334.6       334.3       334.0    
        333.7       333.3       332.8       332.6       332.4       332.0       331.6       331.1       330.6       329.9    
        329.2       328.4       327.5       326.4       325.2    
  15    335.4       335.3       335.3       335.2       335.1       335.0       334.8       334.6       334.3       334.1    
        333.8       333.4       333.0       332.7       332.4       332.1       331.6       331.2       330.6       330.0    
        329.2       328.4       327.5       326.4       325.2    
  16    335.4       335.4       335.3       335.2       335.1       335.0       334.8       334.6       334.4       334.1    
        333.8       333.5       333.2       332.8       332.5       332.1       331.7       331.2       330.6       330.0    
        329.2       328.4       327.5       326.4       325.2    
  17    335.4       335.4       335.3       335.2       335.1       335.0       334.8       334.6       334.4       334.2    
        333.9       333.6       333.3       332.9       332.6       332.2       331.7       331.2       330.6       330.0    
        329.2       328.4       327.5       326.4       325.2    
  18    335.4       335.4       335.3       335.2       335.1       335.0       334.8       334.7       334.5       334.2    
        333.9       333.6       333.3       333.0       332.6       332.2       331.7       331.2       330.7       330.0    
        329.3       328.4       327.5       326.4       325.2    
  19    335.4       335.4       335.3       335.3       335.2       335.0       334.9       334.7       334.5       334.2    
        334.0       333.7       333.4       333.0       332.7       332.2       331.8       331.3       330.7       330.0    
        329.3       328.4       327.5       326.4       325.2    
  20    335.4       335.4       335.3       335.3       335.2       335.0       334.9       334.7       334.5       334.3    
        334.0       333.7       333.4       333.1       332.7       332.3       331.8       331.3       330.7       330.0    
        329.3       328.4       327.5       326.4       325.2    
  21    335.4       335.4       335.3       335.3       335.2       335.1       334.9       334.7       334.5       334.3    
        334.1       333.8       333.5       333.1       332.7       332.3       331.8       331.3       330.7       330.0    
        329.3       328.5       327.5       326.4       325.2    
  22    335.4       335.4       335.4       335.3       335.2       335.1       334.9       334.7       334.6       334.3    
        334.1       333.8       333.5       333.1       332.7       332.3       331.8       331.3       330.7       330.1    
        329.3       328.5       327.5       326.4       325.2    
  23    335.4       335.4       335.4       335.3       335.2       335.1       334.9       334.8       334.6       334.3    
        334.1       333.8       333.5       333.2       332.8       332.3       331.9       331.3       330.7       330.1    
        329.3       328.5       327.5       326.4       325.2    
  24    335.4       335.4       335.4       335.3       335.2       335.1       334.9       334.8       334.6       334.4    
        334.1       333.8       333.5       333.2       332.8       332.3       331.9       331.3       330.7       330.1    
        329.3       328.5       327.5       326.4       325.2    
  25    335.4       335.4       335.4       335.3       335.2       335.1       334.9       334.8       334.6       334.4    
        334.1       333.8       333.5       333.2       332.8       332.4       331.9       331.3       330.7       330.1    
        329.3       328.5       327.5       326.4       325.3    
1
              HEAD IN LAYER   4 AT END OF TIME STEP   7 IN STRESS PERIOD    2
  ---------------------------------------------------------------------------

            1           2           3           4           5           6           7           8           9          10
           11          12          13          14          15          16          17          18          19          20
           21          22          23          24          25
 ........................................................................................................................
   1    331.8       331.8       331.7       331.7       331.7       331.6       331.5       331.5       331.4       331.3    
        331.2       331.1       331.0       330.9       330.8       330.8       330.7       330.6       330.5       330.4    
        330.3       330.3       330.2       330.2       330.2    
   2    331.8       331.8       331.7       331.7       331.7       331.6       331.5       331.5       331.4       331.3    
        331.2       331.1       331.0       330.9       330.8       330.7       330.7       330.6       330.5       330.4    
        330.3       330.3       330.2       330.2       330.1    
   3    331.8       331.8       331.7       331.7       331.6       331.6       331.5       331.5       331.4       331.3    
        331.2       331.1       331.0       330.9       330.8       330.7       330.6       330.6       330.5       330.4    
        330.3       330.3       330.2       330.2       330.1    
   4    331.8       331.7       331.7       331.7       331.6       331.6       331.5       331.4       331.3       331.3    
        331.2       331.1       331.0       330.9       330.8       330.7       330.6       330.5       330.5       330.4    
        330.3       330.3       330.2       330.2       330.1    
   5    331.8       331.7       331.7       331.7       331.6       331.6       331.5       331.4       331.3       331.2    
        331.1       331.0       330.9       330.8       330.8       330.7       330.6       330.5       330.4       330.4    
        330.3       330.2       330.2       330.1       330.1    
   6    331.7       331.7       331.7       331.7       331.6       331.5       331.5       331.4       331.3       331.2    
        331.1       331.0       330.9       330.8       330.7       330.6       330.6       330.5       330.4       330.3    
        330.3       330.2       330.2       330.1       330.1    
   7    331.7       331.7       331.7       331.6       331.6       331.5       331.4       331.3       331.2       331.1    
        331.0       330.9       330.8       330.7       330.6       330.6       330.5       330.4       330.4       330.3    
        330.3       330.2       330.2       330.1       330.1    
   8    331.7       331.7       331.7       331.6       331.6       331.5       331.4       331.3       331.2       331.1    
        330.9       330.8       330.7       330.6       330.6       330.5       330.5       330.4       330.3       330.3    
        330.2       330.2       330.1       330.1       330.1    
   9    331.7       331.7       331.7       331.6       331.5       331.5       331.4       331.2       331.1       331.0    
        330.8       330.7       330.6       330.5       330.5       330.4       330.4       330.4       330.3       330.3    
        330.2       330.2       330.1       330.1       330.1    
  10    331.7       331.7       331.6       331.6       331.5       331.4       331.3       331.2       331.1       330.9    
        330.7       330.6       330.4       330.4       330.4       330.3       330.3       330.3       330.3       330.2    
        330.2       330.2       330.1       330.1       330.1    
  11    331.7       331.7       331.6       331.6       331.5       331.4       331.3       331.2       331.0       330.8    
        330.6       330.4       330.2       330.2       330.2       330.3       330.3       330.3       330.2       330.2    
        330.2       330.1       330.1       330.1       330.1    
  12    331.7       331.7       331.6       331.6       331.5       331.4       331.3       331.1       331.0       330.7    
        330.5       330.1       329.8       329.9       330.1       330.2       330.2       330.2       330.2       330.2    
        330.2       330.1       330.1       330.1       330.1    
  13    331.7       331.7       331.6       331.6       331.5       331.4       331.3       331.1       330.9       330.7    
        330.4       329.8       328.7       329.7       330.0       330.1       330.2       330.2       330.2       330.2    
        330.2       330.1       330.1       330.1       330.1    
  14    331.7       331.7       331.6       331.6       331.5       331.4       331.3       331.1       331.0       330.7    
        330.5       330.1       329.8       329.9       330.1       330.2       330.2       330.2       330.2       330.2    
        330.2       330.1       330.1       330.1       330.1    
  15    331.7       331.7       331.6       331.6       331.5       331.4       331.3       331.2       331.0       330.8    
        330.6       330.4       330.2       330.2       330.2       330.3       330.3       330.3       330.2       330.2    
        330.2       330.1       330.1       330.1       330.1    
  16    331.7       331.7       331.6       331.6       331.5       331.4       331.3       331.2       331.1       330.9    
        330.7       330.6       330.4       330.4       330.4       330.3       330.3       330.3       330.3       330.2    
        330.2       330.2       330.1       330.1       330.1    
  17    331.7       331.7       331.7       331.6       331.5       331.5       331.4       331.2       331.1       331.0    
        330.8       330.7       330.6       330.5       330.5       330.4       330.4       330.4       330.3       330.3    
        330.2       330.2       330.1       330.1       330.1    
  18    331.7       331.7       331.7       331.6       331.6       331.5       331.4       331.3       331.2       331.1    
        330.9       330.8       330.7       330.6       330.6       330.5       330.5       330.4       330.3       330.3    
        330.2       330.2       330.1       330.1       330.1    
  19    331.7       331.7       331.7       331.6       331.6       331.5       331.4       331.3       331.2       331.1    
        331.0       330.9       330.8       330.7       330.6       330.6       330.5       330.4       330.4       330.3    
        330.3       330.2       330.2       330.1       330.1    
  20    331.7       331.7       331.7       331.7       331.6       331.5       331.5       331.4       331.3       331.2    
        331.1       331.0       330.9       330.8       330.7       330.6       330.6       330.5       330.4       330.3    
        330.3       330.2       330.2       330.1       330.1    
  21    331.8       331.7       331.7       331.7       331.6       331.6       331.5       331.4       331.3       331.2    
        331.1       331.0       330.9       330.8       330.8       330.7       330.6       330.5       330.4       330.4    
        330.3       330.2       330.2       330.1       330.1    
  22    331.8       331.7       331.7       331.7       331.6       331.6       331.5       331.4       331.3       331.3    
        331.2       331.1       331.0       330.9       330.8       330.7       330.6       330.5       330.5       330.4    
        330.3       330.3       330.2       330.2       330.1    
  23    331.8       331.8       331.7       331.7       331.6       331.6       331.5       331.5       331.4       331.3    
        331.2       331.1       331.0       330.9       330.8       330.7       330.6       330.6       330.5       330.4    
        330.3       330.3       330.2       330.2       330.1    
  24    331.8       331.8       331.7       331.7       331.7       331.6       331.5       331.5       331.4       331.3    
        331.2       331.1       331.0       330.9       330.8       330.7       330.7       330.6       330.5       330.4    
        330.3       330.3       330.2       330.2       330.1    
  25    331.8       331.8       331.7       331.7       331.7       331.6       331.5       331.5       331.4       331.3    
        331.2       331.1       331.0       330.9       330.8       330.8       330.7       330.6       330.5       330.4    
        330.3       330.3       330.2       330.2       330.2    
1
              HEAD IN LAYER   5 AT END OF TIME STEP   7 IN STRESS PERIOD    2
  ---------------------------------------------------------------------------

            1           2           3           4           5           6           7           8           9          10
           11          12          13          14          15          16          17          18          19          20
           21          22          23          24          25
 ........................................................................................................................
   1    331.8       331.8       331.7       331.7       331.7       331.6       331.5       331.5       331.4       331.3    
        331.2       331.1       331.0       330.9       330.8       330.8       330.7       330.6       330.5       330.4    
        330.3       330.3       330.2       330.2       330.2    
   2    331.8       331.8       331.7       331.7       331.6       331.6       331.5       331.5       331.4       331.3    
        331.2       331.1       331.0       330.9       330.8       330.7       330.7       330.6       330.5       330.4    
        330.3       330.3       330.2       330.2       330.2    
   3    331.8       331.7       331.7       331.7       331.6       331.6       331.5       331.4       331.4       331.3    
        331.2       331.1       331.0       330.9       330.8       330.7       330.6       330.6       330.5       330.4    
        330.3       330.3       330.2       330.2       330.2    
   4    331.8       331.7       331.7       331.7       331.6       331.6       331.5       331.4       331.3       331.3    
        331.2       331.1       331.0       330.9       330.8       330.7       330.6       330.5       330.5       330.4    
        330.3       330.3       330.2       330.2       330.1    
   5    331.7       331.7       331.7       331.7       331.6       331.6       331.5       331.4       331.3       331.2    
        331.1       331.0       330.9       330.8       330.8       330.7       330.6       330.5       330.4       330.4    
        330.3       330.2       330.2       330.2       330.1    
   6    331.7       331.7       331.7       331.6       331.6       331.5       331.5       331.4       331.3       331.2    
        331.1       331.0       330.9       330.8       330.7       330.6       330.6       330.5       330.4       330.3    
        330.3       330.2       330.2       330.1       330.1    
   7    331.7       331.7       331.7       331.6       331.6       331.5       331.4       331.3       331.2       331.1    
        331.0       330.9       330.8       330.7       330.6       330.6       330.5       330.4       330.4       330.3    
        330.3       330.2       330.2       330.1       330.1    
   8    331.7       331.7       331.7       331.6       331.6       331.5       331.4       331.3       331.2       331.1    
        330.9       330.8       330.7       330.6       330.6       330.5       330.5       330.4       330.3       330.3    
        330.2       330.2       330.1       330.1       330.1    
   9    331.7       331.7       331.6       331.6       331.5       331.4       331.4       331.2       331.1       331.0    
        330.8       330.7       330.6       330.5       330.5       330.4       330.4       330.4       330.3       330.3    
        330.2       330.2       330.1       330.1       330.1    
  10    331.7       331.7       331.6       331.6       331.5       331.4       331.3       331.2       331.1       330.9    
        330.7       330.6       330.4       330.4       330.4       330.3       330.3       330.3       330.3       330.2    
        330.2       330.2       330.1       330.1       330.1    
  11    331.7       331.7       331.6       331.6       331.5       331.4       331.3       331.2       331.0       330.8    
        330.6       330.4       330.2       330.2       330.2       330.3       330.3       330.3       330.2       330.2    
        330.2       330.1       330.1       330.1       330.1    
  12    331.7       331.7       331.6       331.6       331.5       331.4       331.3       331.1       330.9       330.7    
        330.5       330.1       329.8       329.9       330.1       330.2       330.2       330.2       330.2       330.2    
        330.2       330.1       330.1       330.1       330.1    
  13    331.7       331.6       331.6       331.6       331.5       331.4       331.3       331.1       330.9       330.7    
        330.4       329.9       329.0       329.7       330.0       330.1       330.2       330.2       330.2       330.2    
        330.2       330.1       330.1       330.1       330.1    
  14    331.7       331.7       331.6       331.6       331.5       331.4       331.3       331.1       330.9       330.7    
        330.5       330.1       329.8       329.9       330.1       330.2       330.2       330.2       330.2       330.2    
        330.2       330.1       330.1       330.1       330.1    
  15    331.7       331.7       331.6       331.6       331.5       331.4       331.3       331.2       331.0       330.8    
        330.6       330.4       330.2       330.2       330.2       330.3       330.3       330.3       330.2       330.2    
        330.2       330.1       330.1       330.1       330.1    
  16    331.7       331.7       331.6       331.6       331.5       331.4       331.3       331.2       331.1       330.9    
        330.7       330.6       330.4       330.4       330.4       330.3       330.3       330.3       330.3       330.2    
        330.2       330.2       330.1       330.1       330.1    
  17    331.7       331.7       331.6       331.6       331.5       331.4       331.4       331.2       331.1       331.0    
        330.8       330.7       330.6       330.5       330.5       330.4       330.4       330.4       330.3       330.3    
        330.2       330.2       330.1       330.1       330.1    
  18    331.7       331.7       331.7       331.6       331.6       331.5       331.4       331.3       331.2       331.1    
        330.9       330.8       330.7       330.6       330.6       330.5       330.5       330.4       330.3       330.3    
        330.2       330.2       330.1       330.1       330.1    
  19    331.7       331.7       331.7       331.6       331.6       331.5       331.4       331.3       331.2       331.1    
        331.0       330.9       330.8       330.7       330.6       330.6       330.5       330.4       330.4       330.3    
        330.3       330.2       330.2       330.1       330.1    
  20    331.7       331.7       331.7       331.6       331.6       331.5       331.5       331.4       331.3       331.2    
        331.1       331.0       330.9       330.8       330.7       330.6       330.6       330.5       330.4       330.3    
        330.3       330.2       330.2       330.1       330.1    
  21    331.7       331.7       331.7       331.7       331.6       331.6       331.5       331.4       331.3       331.2    
        331.1       331.0       330.9       330.8       330.8       330.7       330.6       330.5       330.4       330.4    
        330.3       330.2       330.2       330.2       330.1    
  22    331.8       331.7       331.7       331.7       331.6       331.6       331.5       331.4       331.3       331.3    
        331.2       331.1       331.0       330.9       330.8       330.7       330.6       330.5       330.5       330.4    
        330.3       330.3       330.2       330.2       330.1    
  23    331.8       331.7       331.7       331.7       331.6       331.6       331.5       331.4       331.4       331.3    
        331.2       331.1       331.0       330.9       330.8       330.7       330.6       330.6       330.5       330.4    
        330.3       330.3       330.2       330.2       330.2    
  24    331.8       331.8       331.7       331.7       331.6       331.6       331.5       331.5       331.4       331.3    
        331.2       331.1       331.0       330.9       330.8       330.7       330.7       330.6       330.5       330.4    
        330.3       330.3       330.2       330.2       330.2    
  25    331.8       331.8       331.7       331.7       331.7       331.6       331.5       331.5       331.4       331.3    
        331.2       331.1       331.0       330.9       330.8       330.8       330.7       330.6       330.5       330.4    
        330.3       330.3       330.2       330.2       330.2    

 HEAD WILL BE SAVED ON UNIT   50 AT END OF TIME STEP    7, STRESS PERIOD    2



         TIME SUMMARY AT END OF TIME STEP    7 IN STRESS PERIOD    2
                    SECONDS     MINUTES      HOURS       DAYS        YEARS
                    -----------------------------------------------------------
   TIME STEP LENGTH 8.68393E+07 1.44732E+06  24122.      1005.1      2.7518    
 STRESS PERIOD TIME 2.45270E+08 4.08784E+06  68131.      2838.8      7.7721    
         TOTAL TIME 1.75253E+10 2.92088E+08 4.86813E+06 2.02839E+05  555.34    
1
 
 SOLVING FOR HEAD 
     1 CALLS TO PCG ROUTINE FOR TIME STEP   8 IN STRESS PERIOD    2
     1 TOTAL ITERATIONS

 MAXIMUM HEAD CHANGE FOR EACH ITERATION (1 INDICATES THE FIRST INNER ITERATION):

    HEAD CHANGE    HEAD CHANGE    HEAD CHANGE    HEAD CHANGE    HEAD CHANGE 
   LAYER,ROW,COL  LAYER,ROW,COL  LAYER,ROW,COL  LAYER,ROW,COL  LAYER,ROW,COL
 ---------------------------------------------------------------------------
  1  0.9124E-05
   (  5, 19,  5)

 MAXIMUM RESIDUAL FOR EACH ITERATION (1 INDICATES THE FIRST INNER ITERATION):

    RESIDUAL       RESIDUAL       RESIDUAL       RESIDUAL       RESIDUAL    
   LAYER,ROW,COL  LAYER,ROW,COL  LAYER,ROW,COL  LAYER,ROW,COL  LAYER,ROW,COL
 ---------------------------------------------------------------------------
  1 -0.6484    
   (  1,  4, 25)



 OUTPUT CONTROL FOR STRESS PERIOD    2   TIME STEP    8
    SAVE BUDGET
    PRINT HEAD FOR ALL LAYERS
    SAVE HEAD FOR ALL LAYERS
 UBDSV1 SAVING "         STORAGE" ON UNIT  53 AT TIME STEP  8, STRESS PERIOD   2
 UBDSV2 SAVING "   CONSTANT HEAD" ON UNIT  53 AT TIME STEP  8, STRESS PERIOD   2
 UBDSV1 SAVING "FLOW RIGHT FACE " ON UNIT  53 AT TIME STEP  8, STRESS PERIOD   2
 UBDSV1 SAVING "FLOW FRONT FACE " ON UNIT  53 AT TIME STEP  8, STRESS PERIOD   2
 UBDSV1 SAVING "FLOW LOWER FACE " ON UNIT  53 AT TIME STEP  8, STRESS PERIOD   2
 UBDSV4 SAVING "   RIVER LEAKAGE" ON UNIT  53 AT TIME STEP  8, STRESS PERIOD   2
 UBDSV3 SAVING "        RECHARGE" ON UNIT  53 AT TIME STEP  8, STRESS PERIOD   2
1
              HEAD IN LAYER   1 AT END OF TIME STEP   8 IN STRESS PERIOD    2
  ---------------------------------------------------------------------------

            1           2           3           4           5           6           7           8           9          10
           11          12          13          14          15          16          17          18          19          20
           21          22          23          24          25
 ........................................................................................................................
   1    339.1       339.1       339.0       338.9       338.8       338.6       338.4       338.1       337.8       337.4    
        337.0       336.6       336.0       335.4       334.7       334.0       333.1       332.1       331.0       329.7    
        328.3       326.7       324.8       322.7       320.1    
   2    339.1       339.1       339.0       338.9       338.8       338.6       338.4       338.1       337.8       337.4    
        337.0       336.5       336.0       335.4       334.7       334.0       333.1       332.1       331.0       329.7    
        328.3       326.7       324.8       322.7       320.1    
   3    339.1       339.1       339.0       338.9       338.8       338.6       338.4       338.1       337.8       337.4    
        337.0       336.5       336.0       335.4       334.7       334.0       333.1       332.1       331.0       329.7    
        328.3       326.7       324.8       322.7       320.1    
   4    339.1       339.1       339.0       338.9       338.8       338.6       338.4       338.1       337.8       337.4    
        337.0       336.5       336.0       335.4       334.7       334.0       333.1       332.1       331.0       329.7    
        328.3       326.7       324.8       322.7       320.1    
   5    339.1       339.1       339.0       338.9       338.8       338.6       338.3       338.1       337.8       337.4    
        337.0       336.5       336.0       335.4       334.7       333.9       333.1       332.1       331.0       329.7    
        328.3       326.7       324.8       322.7       320.1    
   6    339.1       339.1       339.0       338.9       338.8       338.6       338.3       338.1       337.8       337.4    
        337.0       336.5       336.0       335.4       334.7       333.9       333.1       332.1       331.0       329.7    
        328.3       326.7       324.8       322.7       320.1    
   7    339.1       339.1       339.0       338.9       338.7       338.6       338.3       338.1       337.8       337.4    
        337.0       336.5       336.0       335.4       334.7       333.9       333.1       332.1       331.0       329.7    
        328.3       326.7       324.8       322.7       320.1    
   8    339.1       339.1       339.0       338.9       338.7       338.6       338.3       338.1       337.7       337.4    
        337.0       336.5       336.0       335.4       334.7       333.9       333.1       332.1       331.0       329.7    
        328.3       326.7       324.8       322.7       320.1    
   9    339.1       339.1       339.0       338.9       338.7       338.5       338.3       338.0       337.7       337.4    
        337.0       336.5       335.9       335.3       334.7       333.9       333.0       332.1       331.0       329.7    
        328.3       326.7       324.8       322.7       320.1    
  10    339.1       339.1       339.0       338.9       338.7       338.5       338.3       338.0       337.7       337.4    
        336.9       336.5       335.9       335.3       334.7       333.9       333.0       332.1       331.0       329.7    
        328.3       326.7       324.8       322.7       320.1    
  11    339.1       339.1       339.0       338.9       338.7       338.5       338.3       338.0       337.7       337.3    
        336.9       336.5       335.9       335.3       334.6       333.9       333.0       332.1       331.0       329.7    
        328.3       326.7       324.8       322.7       320.1    
  12    339.1       339.1       339.0       338.9       338.7       338.5       338.3       338.0       337.7       337.3    
        336.9       336.4       335.9       335.3       334.6       333.9       333.0       332.0       331.0       329.7    
        328.3       326.7       324.8       322.7       320.1    
  13    339.1       339.1       339.0       338.9       338.7       338.5       338.3       338.0       337.7       337.3    
        336.9       336.4       335.9       335.3       334.6       333.9       333.0       332.0       330.9       329.7    
        328.3       326.7       324.8       322.7       320.1    
  14    339.1       339.1       339.0       338.9       338.7       338.5       338.3       338.0       337.7       337.3    
        336.9       336.4       335.9       335.3       334.6       333.9       333.0       332.0       331.0       329.7    
        328.3       326.7       324.8       322.7       320.1    
  15    339.1       339.1       339.0       338.9       338.7       338.5       338.3       338.0       337.7       337.3    
        336.9       336.5       335.9       335.3       334.6       333.9       333.0       332.1       331.0       329.7    
        328.3       326.7       324.8       322.7       320.1    
  16    339.1       339.1       339.0       338.9       338.7       338.5       338.3       338.0       337.7       337.4    
        336.9       336.5       335.9       335.3       334.7       333.9       333.0       332.1       331.0       329.7    
        328.3       326.7       324.8       322.7       320.1    
  17    339.1       339.1       339.0       338.9       338.7       338.5       338.3       338.0       337.7       337.4    
        337.0       336.5       335.9       335.3       334.7       333.9       333.0       332.1       331.0       329.7    
        328.3       326.7       324.8       322.7       320.1    
  18    339.1       339.1       339.0       338.9       338.7       338.6       338.3       338.1       337.7       337.4    
        337.0       336.5       336.0       335.4       334.7       333.9       333.1       332.1       331.0       329.7    
        328.3       326.7       324.8       322.7       320.1    
  19    339.1       339.1       339.0       338.9       338.7       338.6       338.3       338.1       337.8       337.4    
        337.0       336.5       336.0       335.4       334.7       333.9       333.1       332.1       331.0       329.7    
        328.3       326.7       324.8       322.7       320.1    
  20    339.1       339.1       339.0       338.9       338.8       338.6       338.3       338.1       337.8       337.4    
        337.0       336.5       336.0       335.4       334.7       333.9       333.1       332.1       331.0       329.7    
        328.3       326.7       324.8       322.7       320.1    
  21    339.1       339.1       339.0       338.9       338.8       338.6       338.3       338.1       337.8       337.4    
        337.0       336.5       336.0       335.4       334.7       333.9       333.1       332.1       331.0       329.7    
        328.3       326.7       324.8       322.7       320.1    
  22    339.1       339.1       339.0       338.9       338.8       338.6       338.4       338.1       337.8       337.4    
        337.0       336.5       336.0       335.4       334.7       334.0       333.1       332.1       331.0       329.7    
        328.3       326.7       324.8       322.7       320.1    
  23    339.1       339.1       339.0       338.9       338.8       338.6       338.4       338.1       337.8       337.4    
        337.0       336.5       336.0       335.4       334.7       334.0       333.1       332.1       331.0       329.7    
        328.3       326.7       324.8       322.7       320.1    
  24    339.1       339.1       339.0       338.9       338.8       338.6       338.4       338.1       337.8       337.4    
        337.0       336.5       336.0       335.4       334.7       334.0       333.1       332.1       331.0       329.7    
        328.3       326.7       324.8       322.7       320.1    
  25    339.1       339.1       339.0       338.9       338.8       338.6       338.4       338.1       337.8       337.4    
        337.0       336.6       336.0       335.4       334.7       334.0       333.1       332.1       331.0       329.7    
        328.3       326.7       324.8       322.7       320.1    
1
              HEAD IN LAYER   2 AT END OF TIME STEP   8 IN STRESS PERIOD    2
  ---------------------------------------------------------------------------

            1           2           3           4           5           6           7           8           9          10
           11          12          13          14          15          16          17          18          19          20
           21          22          23          24          25
 ........................................................................................................................
   1    339.1       339.1       339.0       338.9       338.7       338.6       338.3       338.1       337.8       337.4    
        337.0       336.5       336.0       335.4       334.7       333.9       333.1       332.1       331.0       329.7    
        328.3       326.7       324.8       322.7       320.3    
   2    339.1       339.1       339.0       338.9       338.7       338.6       338.3       338.1       337.8       337.4    
        337.0       336.5       336.0       335.4       334.7       333.9       333.1       332.1       331.0       329.7    
        328.3       326.7       324.8       322.7       320.3    
   3    339.1       339.1       339.0       338.9       338.7       338.6       338.3       338.1       337.8       337.4    
        337.0       336.5       336.0       335.4       334.7       333.9       333.1       332.1       331.0       329.7    
        328.3       326.7       324.8       322.7       320.3    
   4    339.1       339.1       339.0       338.9       338.7       338.6       338.3       338.1       337.8       337.4    
        337.0       336.5       336.0       335.4       334.7       333.9       333.1       332.1       331.0       329.7    
        328.3       326.7       324.8       322.7       320.3    
   5    339.1       339.1       339.0       338.9       338.7       338.5       338.3       338.1       337.7       337.4    
        337.0       336.5       336.0       335.4       334.7       333.9       333.1       332.1       331.0       329.7    
        328.3       326.7       324.8       322.7       320.3    
   6    339.1       339.1       339.0       338.9       338.7       338.5       338.3       338.1       337.7       337.4    
        337.0       336.5       336.0       335.4       334.7       333.9       333.1       332.1       331.0       329.7    
        328.3       326.7       324.8       322.7       320.3    
   7    339.1       339.0       339.0       338.9       338.7       338.5       338.3       338.0       337.7       337.4    
        337.0       336.5       336.0       335.4       334.7       333.9       333.0       332.1       331.0       329.7    
        328.3       326.7       324.8       322.7       320.3    
   8    339.1       339.0       339.0       338.9       338.7       338.5       338.3       338.0       337.7       337.4    
        336.9       336.5       335.9       335.3       334.7       333.9       333.0       332.1       331.0       329.7    
        328.3       326.7       324.8       322.7       320.3    
   9    339.1       339.0       339.0       338.9       338.7       338.5       338.3       338.0       337.7       337.3    
        336.9       336.5       335.9       335.3       334.6       333.9       333.0       332.1       331.0       329.7    
        328.3       326.7       324.8       322.7       320.3    
  10    339.1       339.0       339.0       338.9       338.7       338.5       338.3       338.0       337.7       337.3    
        336.9       336.4       335.9       335.3       334.6       333.9       333.0       332.0       330.9       329.7    
        328.3       326.7       324.8       322.7       320.3    
  11    339.1       339.0       339.0       338.8       338.7       338.5       338.3       338.0       337.7       337.3    
        336.9       336.4       335.9       335.3       334.6       333.9       333.0       332.0       330.9       329.7    
        328.3       326.7       324.8       322.7       320.3    
  12    339.1       339.0       339.0       338.8       338.7       338.5       338.3       338.0       337.7       337.3    
        336.9       336.4       335.9       335.3       334.6       333.9       333.0       332.0       330.9       329.7    
        328.3       326.7       324.8       322.7       320.3    
  13    339.1       339.0       339.0       338.8       338.7       338.5       338.3       338.0       337.7       337.3    
        336.9       336.4       335.9       335.3       334.6       333.9       333.0       332.0       330.9       329.7    
        328.3       326.7       324.8       322.7       320.3    
  14    339.1       339.0       339.0       338.8       338.7       338.5       338.3       338.0       337.7       337.3    
        336.9       336.4       335.9       335.3       334.6       333.9       333.0       332.0       330.9       329.7    
        328.3       326.7       324.8       322.7       320.3    
  15    339.1       339.0       339.0       338.8       338.7       338.5       338.3       338.0       337.7       337.3    
        336.9       336.4       335.9       335.3       334.6       333.9       333.0       332.0       330.9       329.7    
        328.3       326.7       324.8       322.7       320.3    
  16    339.1       339.0       339.0       338.9       338.7       338.5       338.3       338.0       337.7       337.3    
        336.9       336.4       335.9       335.3       334.6       333.9       333.0       332.0       330.9       329.7    
        328.3       326.7       324.8       322.7       320.3    
  17    339.1       339.0       339.0       338.9       338.7       338.5       338.3       338.0       337.7       337.3    
        336.9       336.5       335.9       335.3       334.6       333.9       333.0       332.1       331.0       329.7    
        328.3       326.7       324.8       322.7       320.3    
  18    339.1       339.0       339.0       338.9       338.7       338.5       338.3       338.0       337.7       337.4    
        336.9       336.5       335.9       335.3       334.7       333.9       333.0       332.1       331.0       329.7    
        328.3       326.7       324.8       322.7       320.3    
  19    339.1       339.0       339.0       338.9       338.7       338.5       338.3       338.0       337.7       337.4    
        337.0       336.5       336.0       335.4       334.7       333.9       333.0       332.1       331.0       329.7    
        328.3       326.7       324.8       322.7       320.3    
  20    339.1       339.1       339.0       338.9       338.7       338.5       338.3       338.1       337.7       337.4    
        337.0       336.5       336.0       335.4       334.7       333.9       333.1       332.1       331.0       329.7    
        328.3       326.7       324.8       322.7       320.3    
  21    339.1       339.1       339.0       338.9       338.7       338.5       338.3       338.1       337.7       337.4    
        337.0       336.5       336.0       335.4       334.7       333.9       333.1       332.1       331.0       329.7    
        328.3       326.7       324.8       322.7       320.3    
  22    339.1       339.1       339.0       338.9       338.7       338.6       338.3       338.1       337.8       337.4    
        337.0       336.5       336.0       335.4       334.7       333.9       333.1       332.1       331.0       329.7    
        328.3       326.7       324.8       322.7       320.3    
  23    339.1       339.1       339.0       338.9       338.7       338.6       338.3       338.1       337.8       337.4    
        337.0       336.5       336.0       335.4       334.7       333.9       333.1       332.1       331.0       329.7    
        328.3       326.7       324.8       322.7       320.3    
  24    339.1       339.1       339.0       338.9       338.7       338.6       338.3       338.1       337.8       337.4    
        337.0       336.5       336.0       335.4       334.7       333.9       333.1       332.1       331.0       329.7    
        328.3       326.7       324.8       322.7       320.3    
  25    339.1       339.1       339.0       338.9       338.7       338.6       338.3       338.1       337.8       337.4    
        337.0       336.5       336.0       335.4       334.7       333.9       333.1       332.1       331.0       329.7    
        328.3       326.7       324.8       322.7       320.3    
1
              HEAD IN LAYER   3 AT END OF TIME STEP   8 IN STRESS PERIOD    2
  ---------------------------------------------------------------------------

            1           2           3           4           5           6           7           8           9          10
           11          12          13          14          15          16          17          18          19          20
           21          22          23          24          25
 ........................................................................................................................
   1    335.4       335.4       335.4       335.3       335.2       335.1       334.9       334.8       334.6       334.4    
        334.1       333.8       333.5       333.2       332.8       332.4       331.9       331.3       330.7       330.1    
        329.3       328.5       327.5       326.4       325.3    
   2    335.4       335.4       335.4       335.3       335.2       335.1       334.9       334.8       334.6       334.4    
        334.1       333.8       333.5       333.2       332.8       332.3       331.9       331.3       330.7       330.1    
        329.3       328.5       327.5       326.4       325.2    
   3    335.4       335.4       335.4       335.3       335.2       335.1       334.9       334.8       334.6       334.3    
        334.1       333.8       333.5       333.2       332.8       332.3       331.9       331.3       330.7       330.1    
        329.3       328.5       327.5       326.4       325.2    
   4    335.4       335.4       335.4       335.3       335.2       335.1       334.9       334.7       334.6       334.3    
        334.1       333.8       333.5       333.1       332.7       332.3       331.8       331.3       330.7       330.1    
        329.3       328.5       327.5       326.4       325.2    
   5    335.4       335.4       335.3       335.3       335.2       335.1       334.9       334.7       334.5       334.3    
        334.1       333.8       333.5       333.1       332.7       332.3       331.8       331.3       330.7       330.0    
        329.3       328.5       327.5       326.4       325.2    
   6    335.4       335.4       335.3       335.3       335.2       335.0       334.9       334.7       334.5       334.3    
        334.0       333.7       333.4       333.1       332.7       332.3       331.8       331.3       330.7       330.0    
        329.3       328.4       327.5       326.4       325.2    
   7    335.4       335.4       335.3       335.3       335.2       335.0       334.9       334.7       334.5       334.2    
        334.0       333.7       333.4       333.0       332.7       332.2       331.8       331.3       330.7       330.0    
        329.3       328.4       327.5       326.4       325.2    
   8    335.4       335.4       335.3       335.2       335.1       335.0       334.8       334.7       334.5       334.2    
        333.9       333.6       333.3       333.0       332.6       332.2       331.7       331.2       330.7       330.0    
        329.3       328.4       327.5       326.4       325.2    
   9    335.4       335.4       335.3       335.2       335.1       335.0       334.8       334.6       334.4       334.2    
        333.9       333.6       333.3       332.9       332.6       332.2       331.7       331.2       330.6       330.0    
        329.2       328.4       327.5       326.4       325.2    
  10    335.4       335.4       335.3       335.2       335.1       335.0       334.8       334.6       334.4       334.1    
        333.8       333.5       333.2       332.8       332.5       332.1       331.7       331.2       330.6       330.0    
        329.2       328.4       327.5       326.4       325.2    
  11    335.4       335.3       335.3       335.2       335.1       335.0       334.8       334.6       334.3       334.1    
        333.8       333.4       333.0       332.7       332.4       332.1       331.6       331.2       330.6       330.0    
        329.2       328.4       327.5       326.4       325.2    
  12    335.4       335.3       335.3       335.2       335.1       335.0       334.8       334.6       334.3       334.0    
        333.7       333.3       332.8       332.6       332.4       332.0       331.6       331.1       330.6       329.9    
        329.2       328.4       327.5       326.4       325.2    
  13    335.4       335.3       335.3       335.2       335.1       335.0       334.8       334.6       334.3       334.0    
        333.6       333.1       332.3       332.5       332.3       332.0       331.6       331.1       330.6       329.9    
        329.2       328.4       327.5       326.4       325.2    
  14    335.4       335.3       335.3       335.2       335.1       335.0       334.8       334.6       334.3       334.0    
        333.7       333.3       332.8       332.6       332.4       332.0       331.6       331.1       330.6       329.9    
        329.2       328.4       327.5       326.4       325.2    
  15    335.4       335.3       335.3       335.2       335.1       335.0       334.8       334.6       334.3       334.1    
        333.8       333.4       333.0       332.7       332.4       332.1       331.6       331.2       330.6       330.0    
        329.2       328.4       327.5       326.4       325.2    
  16    335.4       335.4       335.3       335.2       335.1       335.0       334.8       334.6       334.4       334.1    
        333.8       333.5       333.2       332.8       332.5       332.1       331.7       331.2       330.6       330.0    
        329.2       328.4       327.5       326.4       325.2    
  17    335.4       335.4       335.3       335.2       335.1       335.0       334.8       334.6       334.4       334.2    
        333.9       333.6       333.3       332.9       332.6       332.2       331.7       331.2       330.6       330.0    
        329.2       328.4       327.5       326.4       325.2    
  18    335.4       335.4       335.3       335.2       335.1       335.0       334.8       334.7       334.5       334.2    
        333.9       333.6       333.3       333.0       332.6       332.2       331.7       331.2       330.7       330.0    
        329.3       328.4       327.5       326.4       325.2    
  19    335.4       335.4       335.3       335.3       335.2       335.0       334.9       334.7       334.5       334.2    
        334.0       333.7       333.4       333.0       332.7       332.2       331.8       331.3       330.7       330.0    
        329.3       328.4       327.5       326.4       325.2    
  20    335.4       335.4       335.3       335.3       335.2       335.0       334.9       334.7       334.5       334.3    
        334.0       333.7       333.4       333.1       332.7       332.3       331.8       331.3       330.7       330.0    
        329.3       328.4       327.5       326.4       325.2    
  21    335.4       335.4       335.3       335.3       335.2       335.1       334.9       334.7       334.5       334.3    
        334.1       333.8       333.5       333.1       332.7       332.3       331.8       331.3       330.7       330.0    
        329.3       328.5       327.5       326.4       325.2    
  22    335.4       335.4       335.4       335.3       335.2       335.1       334.9       334.7       334.6       334.3    
        334.1       333.8       333.5       333.1       332.7       332.3       331.8       331.3       330.7       330.1    
        329.3       328.5       327.5       326.4       325.2    
  23    335.4       335.4       335.4       335.3       335.2       335.1       334.9       334.8       334.6       334.3    
        334.1       333.8       333.5       333.2       332.8       332.3       331.9       331.3       330.7       330.1    
        329.3       328.5       327.5       326.4       325.2    
  24    335.4       335.4       335.4       335.3       335.2       335.1       334.9       334.8       334.6       334.4    
        334.1       333.8       333.5       333.2       332.8       332.3       331.9       331.3       330.7       330.1    
        329.3       328.5       327.5       326.4       325.2    
  25    335.4       335.4       335.4       335.3       335.2       335.1       334.9       334.8       334.6       334.4    
        334.1       333.8       333.5       333.2       332.8       332.4       331.9       331.3       330.7       330.1    
        329.3       328.5       327.5       326.4       325.3    
1
              HEAD IN LAYER   4 AT END OF TIME STEP   8 IN STRESS PERIOD    2
  ---------------------------------------------------------------------------

            1           2           3           4           5           6           7           8           9          10
           11          12          13          14          15          16          17          18          19          20
           21          22          23          24          25
 ........................................................................................................................
   1    331.8       331.8       331.7       331.7       331.7       331.6       331.5       331.5       331.4       331.3    
        331.2       331.1       331.0       330.9       330.8       330.8       330.7       330.6       330.5       330.4    
        330.3       330.3       330.2       330.2       330.2    
   2    331.8       331.8       331.7       331.7       331.7       331.6       331.5       331.5       331.4       331.3    
        331.2       331.1       331.0       330.9       330.8       330.7       330.7       330.6       330.5       330.4    
        330.3       330.3       330.2       330.2       330.1    
   3    331.8       331.8       331.7       331.7       331.6       331.6       331.5       331.5       331.4       331.3    
        331.2       331.1       331.0       330.9       330.8       330.7       330.6       330.6       330.5       330.4    
        330.3       330.3       330.2       330.2       330.1    
   4    331.8       331.7       331.7       331.7       331.6       331.6       331.5       331.4       331.3       331.3    
        331.2       331.1       331.0       330.9       330.8       330.7       330.6       330.5       330.5       330.4    
        330.3       330.3       330.2       330.2       330.1    
   5    331.8       331.7       331.7       331.7       331.6       331.6       331.5       331.4       331.3       331.2    
        331.1       331.0       330.9       330.8       330.8       330.7       330.6       330.5       330.4       330.4    
        330.3       330.2       330.2       330.1       330.1    
   6    331.7       331.7       331.7       331.7       331.6       331.5       331.5       331.4       331.3       331.2    
        331.1       331.0       330.9       330.8       330.7       330.6       330.6       330.5       330.4       330.3    
        330.3       330.2       330.2       330.1       330.1    
   7    331.7       331.7       331.7       331.6       331.6       331.5       331.4       331.3       331.2       331.1    
        331.0       330.9       330.8       330.7       330.6       330.6       330.5       330.4       330.4       330.3    
        330.3       330.2       330.2       330.1       330.1    
   8    331.7       331.7       331.7       331.6       331.6       331.5       331.4       331.3       331.2       331.1    
        330.9       330.8       330.7       330.6       330.6       330.5       330.5       330.4       330.3       330.3    
        330.2       330.2       330.1       330.1       330.1    
   9    331.7       331.7       331.7       331.6       331.5       331.5       331.4       331.2       331.1       331.0    
        330.8       330.7       330.6       330.5       330.5       330.4       330.4       330.4       330.3       330.3    
        330.2       330.2       330.1       330.1       330.1    
  10    331.7       331.7       331.6       331.6       331.5       331.4       331.3       331.2       331.1       330.9    
        330.7       330.6       330.4       330.4       330.4       330.3       330.3       330.3       330.3       330.2    
        330.2       330.2       330.1       330.1       330.1    
  11    331.7       331.7       331.6       331.6       331.5       331.4       331.3       331.2       331.0       330.8    
        330.6       330.4       330.2       330.2       330.2       330.3       330.3       330.3       330.2       330.2    
        330.2       330.1       330.1       330.1       330.1    
  12    331.7       331.7       331.6       331.6       331.5       331.4       331.3       331.1       331.0       330.7    
        330.5       330.1       329.8       329.9       330.1       330.2       330.2       330.2       330.2       330.2    
        330.2       330.1       330.1       330.1       330.1    
  13    331.7       331.7       331.6       331.6       331.5       331.4       331.3       331.1       330.9       330.7    
        330.4       329.8       328.7       329.7       330.0       330.1       330.2       330.2       330.2       330.2    
        330.2       330.1       330.1       330.1       330.1    
  14    331.7       331.7       331.6       331.6       331.5       331.4       331.3       331.1       331.0       330.7    
        330.5       330.1       329.8       329.9       330.1       330.2       330.2       330.2       330.2       330.2    
        330.2       330.1       330.1       330.1       330.1    
  15    331.7       331.7       331.6       331.6       331.5       331.4       331.3       331.2       331.0       330.8    
        330.6       330.4       330.2       330.2       330.2       330.3       330.3       330.3       330.2       330.2    
        330.2       330.1       330.1       330.1       330.1    
  16    331.7       331.7       331.6       331.6       331.5       331.4       331.3       331.2       331.1       330.9    
        330.7       330.6       330.4       330.4       330.4       330.3       330.3       330.3       330.3       330.2    
        330.2       330.2       330.1       330.1       330.1    
  17    331.7       331.7       331.7       331.6       331.5       331.5       331.4       331.2       331.1       331.0    
        330.8       330.7       330.6       330.5       330.5       330.4       330.4       330.4       330.3       330.3    
        330.2       330.2       330.1       330.1       330.1    
  18    331.7       331.7       331.7       331.6       331.6       331.5       331.4       331.3       331.2       331.1    
        330.9       330.8       330.7       330.6       330.6       330.5       330.5       330.4       330.3       330.3    
        330.2       330.2       330.1       330.1       330.1    
  19    331.7       331.7       331.7       331.6       331.6       331.5       331.4       331.3       331.2       331.1    
        331.0       330.9       330.8       330.7       330.6       330.6       330.5       330.4       330.4       330.3    
        330.3       330.2       330.2       330.1       330.1    
  20    331.7       331.7       331.7       331.7       331.6       331.5       331.5       331.4       331.3       331.2    
        331.1       331.0       330.9       330.8       330.7       330.6       330.6       330.5       330.4       330.3    
        330.3       330.2       330.2       330.1       330.1    
  21    331.8       331.7       331.7       331.7       331.6       331.6       331.5       331.4       331.3       331.2    
        331.1       331.0       330.9       330.8       330.8       330.7       330.6       330.5       330.4       330.4    
        330.3       330.2       330.2       330.1       330.1    
  22    331.8       331.7       331.7       331.7       331.6       331.6       331.5       331.4       331.3       331.3    
        331.2       331.1       331.0       330.9       330.8       330.7       330.6       330.5       330.5       330.4    
        330.3       330.3       330.2       330.2       330.1    
  23    331.8       331.8       331.7       331.7       331.6       331.6       331.5       331.5       331.4       331.3    
        331.2       331.1       331.0       330.9       330.8       330.7       330.6       330.6       330.5       330.4    
        330.3       330.3       330.2       330.2       330.1    
  24    331.8       331.8       331.7       331.7       331.7       331.6       331.5       331.5       331.4       331.3    
        331.2       331.1       331.0       330.9       330.8       330.7       330.7       330.6       330.5       330.4    
        330.3       330.3       330.2       330.2       330.1    
  25    331.8       331.8       331.7       331.7       331.7       331.6       331.5       331.5       331.4       331.3    
        331.2       331.1       331.0       330.9       330.8       330.8       330.7       330.6       330.5       330.4    
        330.3       330.3       330.2       330.2       330.2    
1
              HEAD IN LAYER   5 AT END OF TIME STEP   8 IN STRESS PERIOD    2
  ---------------------------------------------------------------------------

            1           2           3           4           5           6           7           8           9          10
           11          12          13          14          15          16          17          18          19          20
           21          22          23          24          25
 ........................................................................................................................
   1    331.8       331.8       331.7       331.7       331.7       331.6       331.5       331.5       331.4       331.3    
        331.2       331.1       331.0       330.9       330.8       330.8       330.7       330.6       330.5       330.4    
        330.3       330.3       330.2       330.2       330.2    
   2    331.8       331.8       331.7       331.7       331.6       331.6       331.5       331.5       331.4       331.3    
        331.2       331.1       331.0       330.9       330.8       330.7       330.7       330.6       330.5       330.4    
        330.3       330.3       330.2       330.2       330.2    
   3    331.8       331.7       331.7       331.7       331.6       331.6       331.5       331.4       331.4       331.3    
        331.2       331.1       331.0       330.9       330.8       330.7       330.6       330.6       330.5       330.4    
        330.3       330.3       330.2       330.2       330.2    
   4    331.8       331.7       331.7       331.7       331.6       331.6       331.5       331.4       331.3       331.3    
        331.2       331.1       331.0       330.9       330.8       330.7       330.6       330.5       330.5       330.4    
        330.3       330.3       330.2       330.2       330.1    
   5    331.7       331.7       331.7       331.7       331.6       331.6       331.5       331.4       331.3       331.2    
        331.1       331.0       330.9       330.8       330.8       330.7       330.6       330.5       330.4       330.4    
        330.3       330.2       330.2       330.2       330.1    
   6    331.7       331.7       331.7       331.6       331.6       331.5       331.5       331.4       331.3       331.2    
        331.1       331.0       330.9       330.8       330.7       330.6       330.6       330.5       330.4       330.3    
        330.3       330.2       330.2       330.1       330.1    
   7    331.7       331.7       331.7       331.6       331.6       331.5       331.4       331.3       331.2       331.1    
        331.0       330.9       330.8       330.7       330.6       330.6       330.5       330.4       330.4       330.3    
        330.3       330.2       330.2       330.1       330.1    
   8    331.7       331.7       331.7       331.6       331.6       331.5       331.4       331.3       331.2       331.1    
        330.9       330.8       330.7       330.6       330.6       330.5       330.5       330.4       330.3       330.3    
        330.2       330.2       330.1       330.1       330.1    
   9    331.7       331.7       331.6       331.6       331.5       331.4       331.4       331.2       331.1       331.0    
        330.8       330.7       330.6       330.5       330.5       330.4       330.4       330.4       330.3       330.3    
        330.2       330.2       330.1       330.1       330.1    
  10    331.7       331.7       331.6       331.6       331.5       331.4       331.3       331.2       331.1       330.9    
        330.7       330.6       330.4       330.4       330.4       330.3       330.3       330.3       330.3       330.2    
        330.2       330.2       330.1       330.1       330.1    
  11    331.7       331.7       331.6       331.6       331.5       331.4       331.3       331.2       331.0       330.8    
        330.6       330.4       330.2       330.2       330.2       330.3       330.3       330.3       330.2       330.2    
        330.2       330.1       330.1       330.1       330.1    
  12    331.7       331.7       331.6       331.6       331.5       331.4       331.3       331.1       330.9       330.7    
        330.5       330.1       329.8       329.9       330.1       330.2       330.2       330.2       330.2       330.2    
        330.2       330.1       330.1       330.1       330.1    
  13    331.7       331.6       331.6       331.6       331.5       331.4       331.3       331.1       330.9       330.7    
        330.4       329.9       329.0       329.7       330.0       330.1       330.2       330.2       330.2       330.2    
        330.2       330.1       330.1       330.1       330.1    
  14    331.7       331.7       331.6       331.6       331.5       331.4       331.3       331.1       330.9       330.7    
        330.5       330.1       329.8       329.9       330.1       330.2       330.2       330.2       330.2       330.2    
        330.2       330.1       330.1       330.1       330.1    
  15    331.7       331.7       331.6       331.6       331.5       331.4       331.3       331.2       331.0       330.8    
        330.6       330.4       330.2       330.2       330.2       330.3       330.3       330.3       330.2       330.2    
        330.2       330.1       330.1       330.1       330.1    
  16    331.7       331.7       331.6       331.6       331.5       331.4       331.3       331.2       331.1       330.9    
        330.7       330.6       330.4       330.4       330.4       330.3       330.3       330.3       330.3       330.2    
        330.2       330.2       330.1       330.1       330.1    
  17    331.7       331.7       331.6       331.6       331.5       331.4       331.4       331.2       331.1       331.0    
        330.8       330.7       330.6       330.5       330.5       330.4       330.4       330.4       330.3       330.3    
        330.2       330.2       330.1       330.1       330.1    
  18    331.7       331.7       331.7       331.6       331.6       331.5       331.4       331.3       331.2       331.1    
        330.9       330.8       330.7       330.6       330.6       330.5       330.5       330.4       330.3       330.3    
        330.2       330.2       330.1       330.1       330.1    
  19    331.7       331.7       331.7       331.6       331.6       331.5       331.4       331.3       331.2       331.1    
        331.0       330.9       330.8       330.7       330.6       330.6       330.5       330.4       330.4       330.3    
        330.3       330.2       330.2       330.1       330.1    
  20    331.7       331.7       331.7       331.6       331.6       331.5       331.5       331.4       331.3       331.2    
        331.1       331.0       330.9       330.8       330.7       330.6       330.6       330.5       330.4       330.3    
        330.3       330.2       330.2       330.1       330.1    
  21    331.7       331.7       331.7       331.7       331.6       331.6       331.5       331.4       331.3       331.2    
        331.1       331.0       330.9       330.8       330.8       330.7       330.6       330.5       330.4       330.4    
        330.3       330.2       330.2       330.2       330.1    
  22    331.8       331.7       331.7       331.7       331.6       331.6       331.5       331.4       331.3       331.3    
        331.2       331.1       331.0       330.9       330.8       330.7       330.6       330.5       330.5       330.4    
        330.3       330.3       330.2       330.2       330.1    
  23    331.8       331.7       331.7       331.7       331.6       331.6       331.5       331.4       331.4       331.3    
        331.2       331.1       331.0       330.9       330.8       330.7       330.6       330.6       330.5       330.4    
        330.3       330.3       330.2       330.2       330.2    
  24    331.8       331.8       331.7       331.7       331.6       331.6       331.5       331.5       331.4       331.3    
        331.2       331.1       331.0       330.9       330.8       330.7       330.7       330.6       330.5       330.4    
        330.3       330.3       330.2       330.2       330.2    
  25    331.8       331.8       331.7       331.7       331.7       331.6       331.5       331.5       331.4       331.3    
        331.2       331.1       331.0       330.9       330.8       330.8       330.7       330.6       330.5       330.4    
        330.3       330.3       330.2       330.2       330.2    

 HEAD WILL BE SAVED ON UNIT   50 AT END OF TIME STEP    8, STRESS PERIOD    2



         TIME SUMMARY AT END OF TIME STEP    8 IN STRESS PERIOD    2
                    SECONDS     MINUTES      HOURS       DAYS        YEARS
                    -----------------------------------------------------------
   TIME STEP LENGTH 1.30259E+08 2.17098E+06  36183.      1507.6      4.1277    
 STRESS PERIOD TIME 3.75529E+08 6.25882E+06 1.04314E+05  4346.4      11.900    
         TOTAL TIME 1.76555E+10 2.94259E+08 4.90431E+06 2.04346E+05  559.47    
1
 
 SOLVING FOR HEAD 
     1 CALLS TO PCG ROUTINE FOR TIME STEP   9 IN STRESS PERIOD    2
     1 TOTAL ITERATIONS

 MAXIMUM HEAD CHANGE FOR EACH ITERATION (1 INDICATES THE FIRST INNER ITERATION):

    HEAD CHANGE    HEAD CHANGE    HEAD CHANGE    HEAD CHANGE    HEAD CHANGE 
   LAYER,ROW,COL  LAYER,ROW,COL  LAYER,ROW,COL  LAYER,ROW,COL  LAYER,ROW,COL
 ---------------------------------------------------------------------------
  1 -0.8652E-05
   (  3, 24, 10)

 MAXIMUM RESIDUAL FOR EACH ITERATION (1 INDICATES THE FIRST INNER ITERATION):

    RESIDUAL       RESIDUAL       RESIDUAL       RESIDUAL       RESIDUAL    
   LAYER,ROW,COL  LAYER,ROW,COL  LAYER,ROW,COL  LAYER,ROW,COL  LAYER,ROW,COL
 ---------------------------------------------------------------------------
  1 -0.6026    
   (  1,  4, 25)



 OUTPUT CONTROL FOR STRESS PERIOD    2   TIME STEP    9
    SAVE BUDGET
    PRINT HEAD FOR ALL LAYERS
    SAVE HEAD FOR ALL LAYERS
 UBDSV1 SAVING "         STORAGE" ON UNIT  53 AT TIME STEP  9, STRESS PERIOD   2
 UBDSV2 SAVING "   CONSTANT HEAD" ON UNIT  53 AT TIME STEP  9, STRESS PERIOD   2
 UBDSV1 SAVING "FLOW RIGHT FACE " ON UNIT  53 AT TIME STEP  9, STRESS PERIOD   2
 UBDSV1 SAVING "FLOW FRONT FACE " ON UNIT  53 AT TIME STEP  9, STRESS PERIOD   2
 UBDSV1 SAVING "FLOW LOWER FACE " ON UNIT  53 AT TIME STEP  9, STRESS PERIOD   2
 UBDSV4 SAVING "   RIVER LEAKAGE" ON UNIT  53 AT TIME STEP  9, STRESS PERIOD   2
 UBDSV3 SAVING "        RECHARGE" ON UNIT  53 AT TIME STEP  9, STRESS PERIOD   2
1
              HEAD IN LAYER   1 AT END OF TIME STEP   9 IN STRESS PERIOD    2
  ---------------------------------------------------------------------------

            1           2           3           4           5           6           7           8           9          10
           11          12          13          14          15          16          17          18          19          20
           21          22          23          24          25
 ........................................................................................................................
   1    339.1       339.1       339.0       338.9       338.8       338.6       338.4       338.1       337.8       337.4    
        337.0       336.6       336.0       335.4       334.7       334.0       333.1       332.1       331.0       329.7    
        328.3       326.7       324.8       322.7       320.1    
   2    339.1       339.1       339.0       338.9       338.8       338.6       338.4       338.1       337.8       337.4    
        337.0       336.5       336.0       335.4       334.7       334.0       333.1       332.1       331.0       329.7    
        328.3       326.7       324.8       322.7       320.1    
   3    339.1       339.1       339.0       338.9       338.8       338.6       338.4       338.1       337.8       337.4    
        337.0       336.5       336.0       335.4       334.7       334.0       333.1       332.1       331.0       329.7    
        328.3       326.7       324.8       322.7       320.1    
   4    339.1       339.1       339.0       338.9       338.8       338.6       338.4       338.1       337.8       337.4    
        337.0       336.5       336.0       335.4       334.7       334.0       333.1       332.1       331.0       329.7    
        328.3       326.7       324.8       322.7       320.1    
   5    339.1       339.1       339.0       338.9       338.8       338.6       338.3       338.1       337.8       337.4    
        337.0       336.5       336.0       335.4       334.7       333.9       333.1       332.1       331.0       329.7    
        328.3       326.7       324.8       322.7       320.1    
   6    339.1       339.1       339.0       338.9       338.8       338.6       338.3       338.1       337.8       337.4    
        337.0       336.5       336.0       335.4       334.7       333.9       333.1       332.1       331.0       329.7    
        328.3       326.7       324.8       322.7       320.1    
   7    339.1       339.1       339.0       338.9       338.7       338.6       338.3       338.1       337.8       337.4    
        337.0       336.5       336.0       335.4       334.7       333.9       333.1       332.1       331.0       329.7    
        328.3       326.7       324.8       322.7       320.1    
   8    339.1       339.1       339.0       338.9       338.7       338.6       338.3       338.1       337.7       337.4    
        337.0       336.5       336.0       335.4       334.7       333.9       333.1       332.1       331.0       329.7    
        328.3       326.7       324.8       322.7       320.1    
   9    339.1       339.1       339.0       338.9       338.7       338.5       338.3       338.0       337.7       337.4    
        337.0       336.5       335.9       335.3       334.7       333.9       333.0       332.1       331.0       329.7    
        328.3       326.7       324.8       322.7       320.1    
  10    339.1       339.1       339.0       338.9       338.7       338.5       338.3       338.0       337.7       337.4    
        336.9       336.5       335.9       335.3       334.7       333.9       333.0       332.1       331.0       329.7    
        328.3       326.7       324.8       322.7       320.1    
  11    339.1       339.1       339.0       338.9       338.7       338.5       338.3       338.0       337.7       337.3    
        336.9       336.5       335.9       335.3       334.6       333.9       333.0       332.1       331.0       329.7    
        328.3       326.7       324.8       322.7       320.1    
  12    339.1       339.1       339.0       338.9       338.7       338.5       338.3       338.0       337.7       337.3    
        336.9       336.4       335.9       335.3       334.6       333.9       333.0       332.0       331.0       329.7    
        328.3       326.7       324.8       322.7       320.1    
  13    339.1       339.1       339.0       338.9       338.7       338.5       338.3       338.0       337.7       337.3    
        336.9       336.4       335.9       335.3       334.6       333.9       333.0       332.0       330.9       329.7    
        328.3       326.7       324.8       322.7       320.1    
  14    339.1       339.1       339.0       338.9       338.7       338.5       338.3       338.0       337.7       337.3    
        336.9       336.4       335.9       335.3       334.6       333.9       333.0       332.0       331.0       329.7    
        328.3       326.7       324.8       322.7       320.1    
  15    339.1       339.1       339.0       338.9       338.7       338.5       338.3       338.0       337.7       337.3    
        336.9       336.5       335.9       335.3       334.6       333.9       333.0       332.1       331.0       329.7    
        328.3       326.7       324.8       322.7       320.1    
  16    339.1       339.1       339.0       338.9       338.7       338.5       338.3       338.0       337.7       337.4    
        336.9       336.5       335.9       335.3       334.7       333.9       333.0       332.1       331.0       329.7    
        328.3       326.7       324.8       322.7       320.1    
  17    339.1       339.1       339.0       338.9       338.7       338.5       338.3       338.0       337.7       337.4    
        337.0       336.5       335.9       335.3       334.7       333.9       333.0       332.1       331.0       329.7    
        328.3       326.7       324.8       322.7       320.1    
  18    339.1       339.1       339.0       338.9       338.7       338.6       338.3       338.1       337.7       337.4    
        337.0       336.5       336.0       335.4       334.7       333.9       333.1       332.1       331.0       329.7    
        328.3       326.7       324.8       322.7       320.1    
  19    339.1       339.1       339.0       338.9       338.7       338.6       338.3       338.1       337.8       337.4    
        337.0       336.5       336.0       335.4       334.7       333.9       333.1       332.1       331.0       329.7    
        328.3       326.7       324.8       322.7       320.1    
  20    339.1       339.1       339.0       338.9       338.8       338.6       338.3       338.1       337.8       337.4    
        337.0       336.5       336.0       335.4       334.7       333.9       333.1       332.1       331.0       329.7    
        328.3       326.7       324.8       322.7       320.1    
  21    339.1       339.1       339.0       338.9       338.8       338.6       338.3       338.1       337.8       337.4    
        337.0       336.5       336.0       335.4       334.7       333.9       333.1       332.1       331.0       329.7    
        328.3       326.7       324.8       322.7       320.1    
  22    339.1       339.1       339.0       338.9       338.8       338.6       338.4       338.1       337.8       337.4    
        337.0       336.5       336.0       335.4       334.7       334.0       333.1       332.1       331.0       329.7    
        328.3       326.7       324.8       322.7       320.1    
  23    339.1       339.1       339.0       338.9       338.8       338.6       338.4       338.1       337.8       337.4    
        337.0       336.5       336.0       335.4       334.7       334.0       333.1       332.1       331.0       329.7    
        328.3       326.7       324.8       322.7       320.1    
  24    339.1       339.1       339.0       338.9       338.8       338.6       338.4       338.1       337.8       337.4    
        337.0       336.5       336.0       335.4       334.7       334.0       333.1       332.1       331.0       329.7    
        328.3       326.7       324.8       322.7       320.1    
  25    339.1       339.1       339.0       338.9       338.8       338.6       338.4       338.1       337.8       337.4    
        337.0       336.6       336.0       335.4       334.7       334.0       333.1       332.1       331.0       329.7    
        328.3       326.7       324.8       322.7       320.1    
1
              HEAD IN LAYER   2 AT END OF TIME STEP   9 IN STRESS PERIOD    2
  ---------------------------------------------------------------------------

            1           2           3           4           5           6           7           8           9          10
           11          12          13          14          15          16          17          18          19          20
           21          22          23          24          25
 ........................................................................................................................
   1    339.1       339.1       339.0       338.9       338.7       338.6       338.3       338.1       337.8       337.4    
        337.0       336.5       336.0       335.4       334.7       333.9       333.1       332.1       331.0       329.7    
        328.3       326.7       324.8       322.7       320.3    
   2    339.1       339.1       339.0       338.9       338.7       338.6       338.3       338.1       337.8       337.4    
        337.0       336.5       336.0       335.4       334.7       333.9       333.1       332.1       331.0       329.7    
        328.3       326.7       324.8       322.7       320.3    
   3    339.1       339.1       339.0       338.9       338.7       338.6       338.3       338.1       337.8       337.4    
        337.0       336.5       336.0       335.4       334.7       333.9       333.1       332.1       331.0       329.7    
        328.3       326.7       324.8       322.7       320.3    
   4    339.1       339.1       339.0       338.9       338.7       338.6       338.3       338.1       337.8       337.4    
        337.0       336.5       336.0       335.4       334.7       333.9       333.1       332.1       331.0       329.7    
        328.3       326.7       324.8       322.7       320.3    
   5    339.1       339.1       339.0       338.9       338.7       338.5       338.3       338.1       337.7       337.4    
        337.0       336.5       336.0       335.4       334.7       333.9       333.1       332.1       331.0       329.7    
        328.3       326.7       324.8       322.7       320.3    
   6    339.1       339.1       339.0       338.9       338.7       338.5       338.3       338.1       337.7       337.4    
        337.0       336.5       336.0       335.4       334.7       333.9       333.1       332.1       331.0       329.7    
        328.3       326.7       324.8       322.7       320.3    
   7    339.1       339.0       339.0       338.9       338.7       338.5       338.3       338.0       337.7       337.4    
        337.0       336.5       336.0       335.4       334.7       333.9       333.0       332.1       331.0       329.7    
        328.3       326.7       324.8       322.7       320.3    
   8    339.1       339.0       339.0       338.9       338.7       338.5       338.3       338.0       337.7       337.4    
        336.9       336.5       335.9       335.3       334.7       333.9       333.0       332.1       331.0       329.7    
        328.3       326.7       324.8       322.7       320.3    
   9    339.1       339.0       339.0       338.9       338.7       338.5       338.3       338.0       337.7       337.3    
        336.9       336.5       335.9       335.3       334.6       333.9       333.0       332.1       331.0       329.7    
        328.3       326.7       324.8       322.7       320.3    
  10    339.1       339.0       339.0       338.9       338.7       338.5       338.3       338.0       337.7       337.3    
        336.9       336.4       335.9       335.3       334.6       333.9       333.0       332.0       330.9       329.7    
        328.3       326.7       324.8       322.7       320.3    
  11    339.1       339.0       339.0       338.8       338.7       338.5       338.3       338.0       337.7       337.3    
        336.9       336.4       335.9       335.3       334.6       333.9       333.0       332.0       330.9       329.7    
        328.3       326.7       324.8       322.7       320.3    
  12    339.1       339.0       339.0       338.8       338.7       338.5       338.3       338.0       337.7       337.3    
        336.9       336.4       335.9       335.3       334.6       333.9       333.0       332.0       330.9       329.7    
        328.3       326.7       324.8       322.7       320.3    
  13    339.1       339.0       339.0       338.8       338.7       338.5       338.3       338.0       337.7       337.3    
        336.9       336.4       335.9       335.3       334.6       333.9       333.0       332.0       330.9       329.7    
        328.3       326.7       324.8       322.7       320.3    
  14    339.1       339.0       339.0       338.8       338.7       338.5       338.3       338.0       337.7       337.3    
        336.9       336.4       335.9       335.3       334.6       333.9       333.0       332.0       330.9       329.7    
        328.3       326.7       324.8       322.7       320.3    
  15    339.1       339.0       339.0       338.8       338.7       338.5       338.3       338.0       337.7       337.3    
        336.9       336.4       335.9       335.3       334.6       333.9       333.0       332.0       330.9       329.7    
        328.3       326.7       324.8       322.7       320.3    
  16    339.1       339.0       339.0       338.9       338.7       338.5       338.3       338.0       337.7       337.3    
        336.9       336.4       335.9       335.3       334.6       333.9       333.0       332.0       330.9       329.7    
        328.3       326.7       324.8       322.7       320.3    
  17    339.1       339.0       339.0       338.9       338.7       338.5       338.3       338.0       337.7       337.3    
        336.9       336.5       335.9       335.3       334.6       333.9       333.0       332.1       331.0       329.7    
        328.3       326.7       324.8       322.7       320.3    
  18    339.1       339.0       339.0       338.9       338.7       338.5       338.3       338.0       337.7       337.4    
        336.9       336.5       335.9       335.3       334.7       333.9       333.0       332.1       331.0       329.7    
        328.3       326.7       324.8       322.7       320.3    
  19    339.1       339.0       339.0       338.9       338.7       338.5       338.3       338.0       337.7       337.4    
        337.0       336.5       336.0       335.4       334.7       333.9       333.0       332.1       331.0       329.7    
        328.3       326.7       324.8       322.7       320.3    
  20    339.1       339.1       339.0       338.9       338.7       338.5       338.3       338.1       337.7       337.4    
        337.0       336.5       336.0       335.4       334.7       333.9       333.1       332.1       331.0       329.7    
        328.3       326.7       324.8       322.7       320.3    
  21    339.1       339.1       339.0       338.9       338.7       338.5       338.3       338.1       337.7       337.4    
        337.0       336.5       336.0       335.4       334.7       333.9       333.1       332.1       331.0       329.7    
        328.3       326.7       324.8       322.7       320.3    
  22    339.1       339.1       339.0       338.9       338.7       338.6       338.3       338.1       337.8       337.4    
        337.0       336.5       336.0       335.4       334.7       333.9       333.1       332.1       331.0       329.7    
        328.3       326.7       324.8       322.7       320.3    
  23    339.1       339.1       339.0       338.9       338.7       338.6       338.3       338.1       337.8       337.4    
        337.0       336.5       336.0       335.4       334.7       333.9       333.1       332.1       331.0       329.7    
        328.3       326.7       324.8       322.7       320.3    
  24    339.1       339.1       339.0       338.9       338.7       338.6       338.3       338.1       337.8       337.4    
        337.0       336.5       336.0       335.4       334.7       333.9       333.1       332.1       331.0       329.7    
        328.3       326.7       324.8       322.7       320.3    
  25    339.1       339.1       339.0       338.9       338.7       338.6       338.3       338.1       337.8       337.4    
        337.0       336.5       336.0       335.4       334.7       333.9       333.1       332.1       331.0       329.7    
        328.3       326.7       324.8       322.7       320.3    
1
              HEAD IN LAYER   3 AT END OF TIME STEP   9 IN STRESS PERIOD    2
  ---------------------------------------------------------------------------

            1           2           3           4           5           6           7           8           9          10
           11          12          13          14          15          16          17          18          19          20
           21          22          23          24          25
 ........................................................................................................................
   1    335.4       335.4       335.4       335.3       335.2       335.1       334.9       334.8       334.6       334.4    
        334.1       333.8       333.5       333.2       332.8       332.4       331.9       331.3       330.7       330.1    
        329.3       328.5       327.5       326.4       325.3    
   2    335.4       335.4       335.4       335.3       335.2       335.1       334.9       334.8       334.6       334.4    
        334.1       333.8       333.5       333.2       332.8       332.3       331.9       331.3       330.7       330.1    
        329.3       328.5       327.5       326.4       325.2    
   3    335.4       335.4       335.4       335.3       335.2       335.1       334.9       334.8       334.6       334.3    
        334.1       333.8       333.5       333.2       332.8       332.3       331.9       331.3       330.7       330.1    
        329.3       328.5       327.5       326.4       325.2    
   4    335.4       335.4       335.4       335.3       335.2       335.1       334.9       334.7       334.6       334.3    
        334.1       333.8       333.5       333.1       332.7       332.3       331.8       331.3       330.7       330.1    
        329.3       328.5       327.5       326.4       325.2    
   5    335.4       335.4       335.3       335.3       335.2       335.1       334.9       334.7       334.5       334.3    
        334.1       333.8       333.5       333.1       332.7       332.3       331.8       331.3       330.7       330.0    
        329.3       328.5       327.5       326.4       325.2    
   6    335.4       335.4       335.3       335.3       335.2       335.0       334.9       334.7       334.5       334.3    
        334.0       333.7       333.4       333.1       332.7       332.3       331.8       331.3       330.7       330.0    
        329.3       328.4       327.5       326.4       325.2    
   7    335.4       335.4       335.3       335.3       335.2       335.0       334.9       334.7       334.5       334.2    
        334.0       333.7       333.4       333.0       332.7       332.2       331.8       331.3       330.7       330.0    
        329.3       328.4       327.5       326.4       325.2    
   8    335.4       335.4       335.3       335.2       335.1       335.0       334.8       334.7       334.5       334.2    
        333.9       333.6       333.3       333.0       332.6       332.2       331.7       331.2       330.7       330.0    
        329.3       328.4       327.5       326.4       325.2    
   9    335.4       335.4       335.3       335.2       335.1       335.0       334.8       334.6       334.4       334.2    
        333.9       333.6       333.3       332.9       332.6       332.2       331.7       331.2       330.6       330.0    
        329.2       328.4       327.5       326.4       325.2    
  10    335.4       335.4       335.3       335.2       335.1       335.0       334.8       334.6       334.4       334.1    
        333.8       333.5       333.2       332.8       332.5       332.1       331.7       331.2       330.6       330.0    
        329.2       328.4       327.5       326.4       325.2    
  11    335.4       335.3       335.3       335.2       335.1       335.0       334.8       334.6       334.3       334.1    
        333.8       333.4       333.0       332.7       332.4       332.1       331.6       331.2       330.6       330.0    
        329.2       328.4       327.5       326.4       325.2    
  12    335.4       335.3       335.3       335.2       335.1       335.0       334.8       334.6       334.3       334.0    
        333.7       333.3       332.8       332.6       332.4       332.0       331.6       331.1       330.6       329.9    
        329.2       328.4       327.5       326.4       325.2    
  13    335.4       335.3       335.3       335.2       335.1       335.0       334.8       334.6       334.3       334.0    
        333.6       333.1       332.3       332.5       332.3       332.0       331.6       331.1       330.6       329.9    
        329.2       328.4       327.5       326.4       325.2    
  14    335.4       335.3       335.3       335.2       335.1       335.0       334.8       334.6       334.3       334.0    
        333.7       333.3       332.8       332.6       332.4       332.0       331.6       331.1       330.6       329.9    
        329.2       328.4       327.5       326.4       325.2    
  15    335.4       335.3       335.3       335.2       335.1       335.0       334.8       334.6       334.3       334.1    
        333.8       333.4       333.0       332.7       332.4       332.1       331.6       331.2       330.6       330.0    
        329.2       328.4       327.5       326.4       325.2    
  16    335.4       335.4       335.3       335.2       335.1       335.0       334.8       334.6       334.4       334.1    
        333.8       333.5       333.2       332.8       332.5       332.1       331.7       331.2       330.6       330.0    
        329.2       328.4       327.5       326.4       325.2    
  17    335.4       335.4       335.3       335.2       335.1       335.0       334.8       334.6       334.4       334.2    
        333.9       333.6       333.3       332.9       332.6       332.2       331.7       331.2       330.6       330.0    
        329.2       328.4       327.5       326.4       325.2    
  18    335.4       335.4       335.3       335.2       335.1       335.0       334.8       334.7       334.5       334.2    
        333.9       333.6       333.3       333.0       332.6       332.2       331.7       331.2       330.7       330.0    
        329.3       328.4       327.5       326.4       325.2    
  19    335.4       335.4       335.3       335.3       335.2       335.0       334.9       334.7       334.5       334.2    
        334.0       333.7       333.4       333.0       332.7       332.2       331.8       331.3       330.7       330.0    
        329.3       328.4       327.5       326.4       325.2    
  20    335.4       335.4       335.3       335.3       335.2       335.0       334.9       334.7       334.5       334.3    
        334.0       333.7       333.4       333.1       332.7       332.3       331.8       331.3       330.7       330.0    
        329.3       328.4       327.5       326.4       325.2    
  21    335.4       335.4       335.3       335.3       335.2       335.1       334.9       334.7       334.5       334.3    
        334.1       333.8       333.5       333.1       332.7       332.3       331.8       331.3       330.7       330.0    
        329.3       328.5       327.5       326.4       325.2    
  22    335.4       335.4       335.4       335.3       335.2       335.1       334.9       334.7       334.6       334.3    
        334.1       333.8       333.5       333.1       332.7       332.3       331.8       331.3       330.7       330.1    
        329.3       328.5       327.5       326.4       325.2    
  23    335.4       335.4       335.4       335.3       335.2       335.1       334.9       334.8       334.6       334.3    
        334.1       333.8       333.5       333.2       332.8       332.3       331.9       331.3       330.7       330.1    
        329.3       328.5       327.5       326.4       325.2    
  24    335.4       335.4       335.4       335.3       335.2       335.1       334.9       334.8       334.6       334.4    
        334.1       333.8       333.5       333.2       332.8       332.3       331.9       331.3       330.7       330.1    
        329.3       328.5       327.5       326.4       325.2    
  25    335.4       335.4       335.4       335.3       335.2       335.1       334.9       334.8       334.6       334.4    
        334.1       333.8       333.5       333.2       332.8       332.4       331.9       331.3       330.7       330.1    
        329.3       328.5       327.5       326.4       325.3    
1
              HEAD IN LAYER   4 AT END OF TIME STEP   9 IN STRESS PERIOD    2
  ---------------------------------------------------------------------------

            1           2           3           4           5           6           7           8           9          10
           11          12          13          14          15          16          17          18          19          20
           21          22          23          24          25
 ........................................................................................................................
   1    331.8       331.8       331.7       331.7       331.7       331.6       331.5       331.5       331.4       331.3    
        331.2       331.1       331.0       330.9       330.8       330.8       330.7       330.6       330.5       330.4    
        330.3       330.3       330.2       330.2       330.2    
   2    331.8       331.8       331.7       331.7       331.7       331.6       331.5       331.5       331.4       331.3    
        331.2       331.1       331.0       330.9       330.8       330.7       330.7       330.6       330.5       330.4    
        330.3       330.3       330.2       330.2       330.1    
   3    331.8       331.8       331.7       331.7       331.6       331.6       331.5       331.5       331.4       331.3    
        331.2       331.1       331.0       330.9       330.8       330.7       330.6       330.6       330.5       330.4    
        330.3       330.3       330.2       330.2       330.1    
   4    331.8       331.7       331.7       331.7       331.6       331.6       331.5       331.4       331.3       331.3    
        331.2       331.1       331.0       330.9       330.8       330.7       330.6       330.5       330.5       330.4    
        330.3       330.3       330.2       330.2       330.1    
   5    331.8       331.7       331.7       331.7       331.6       331.6       331.5       331.4       331.3       331.2    
        331.1       331.0       330.9       330.8       330.8       330.7       330.6       330.5       330.4       330.4    
        330.3       330.2       330.2       330.1       330.1    
   6    331.7       331.7       331.7       331.7       331.6       331.5       331.5       331.4       331.3       331.2    
        331.1       331.0       330.9       330.8       330.7       330.6       330.6       330.5       330.4       330.3    
        330.3       330.2       330.2       330.1       330.1    
   7    331.7       331.7       331.7       331.6       331.6       331.5       331.4       331.3       331.2       331.1    
        331.0       330.9       330.8       330.7       330.6       330.6       330.5       330.4       330.4       330.3    
        330.3       330.2       330.2       330.1       330.1    
   8    331.7       331.7       331.7       331.6       331.6       331.5       331.4       331.3       331.2       331.1    
        330.9       330.8       330.7       330.6       330.6       330.5       330.5       330.4       330.3       330.3    
        330.2       330.2       330.1       330.1       330.1    
   9    331.7       331.7       331.7       331.6       331.5       331.5       331.4       331.2       331.1       331.0    
        330.8       330.7       330.6       330.5       330.5       330.4       330.4       330.4       330.3       330.3    
        330.2       330.2       330.1       330.1       330.1    
  10    331.7       331.7       331.6       331.6       331.5       331.4       331.3       331.2       331.1       330.9    
        330.7       330.6       330.4       330.4       330.4       330.3       330.3       330.3       330.3       330.2    
        330.2       330.2       330.1       330.1       330.1    
  11    331.7       331.7       331.6       331.6       331.5       331.4       331.3       331.2       331.0       330.8    
        330.6       330.4       330.2       330.2       330.2       330.3       330.3       330.3       330.2       330.2    
        330.2       330.1       330.1       330.1       330.1    
  12    331.7       331.7       331.6       331.6       331.5       331.4       331.3       331.1       331.0       330.7    
        330.5       330.1       329.8       329.9       330.1       330.2       330.2       330.2       330.2       330.2    
        330.2       330.1       330.1       330.1       330.1    
  13    331.7       331.7       331.6       331.6       331.5       331.4       331.3       331.1       330.9       330.7    
        330.4       329.8       328.7       329.7       330.0       330.1       330.2       330.2       330.2       330.2    
        330.2       330.1       330.1       330.1       330.1    
  14    331.7       331.7       331.6       331.6       331.5       331.4       331.3       331.1       331.0       330.7    
        330.5       330.1       329.8       329.9       330.1       330.2       330.2       330.2       330.2       330.2    
        330.2       330.1       330.1       330.1       330.1    
  15    331.7       331.7       331.6       331.6       331.5       331.4       331.3       331.2       331.0       330.8    
        330.6       330.4       330.2       330.2       330.2       330.3       330.3       330.3       330.2       330.2    
        330.2       330.1       330.1       330.1       330.1    
  16    331.7       331.7       331.6       331.6       331.5       331.4       331.3       331.2       331.1       330.9    
        330.7       330.6       330.4       330.4       330.4       330.3       330.3       330.3       330.3       330.2    
        330.2       330.2       330.1       330.1       330.1    
  17    331.7       331.7       331.7       331.6       331.5       331.5       331.4       331.2       331.1       331.0    
        330.8       330.7       330.6       330.5       330.5       330.4       330.4       330.4       330.3       330.3    
        330.2       330.2       330.1       330.1       330.1    
  18    331.7       331.7       331.7       331.6       331.6       331.5       331.4       331.3       331.2       331.1    
        330.9       330.8       330.7       330.6       330.6       330.5       330.5       330.4       330.3       330.3    
        330.2       330.2       330.1       330.1       330.1    
  19    331.7       331.7       331.7       331.6       331.6       331.5       331.4       331.3       331.2       331.1    
        331.0       330.9       330.8       330.7       330.6       330.6       330.5       330.4       330.4       330.3    
        330.3       330.2       330.2       330.1       330.1    
  20    331.7       331.7       331.7       331.7       331.6       331.5       331.5       331.4       331.3       331.2    
        331.1       331.0       330.9       330.8       330.7       330.6       330.6       330.5       330.4       330.3    
        330.3       330.2       330.2       330.1       330.1    
  21    331.8       331.7       331.7       331.7       331.6       331.6       331.5       331.4       331.3       331.2    
        331.1       331.0       330.9       330.8       330.8       330.7       330.6       330.5       330.4       330.4    
        330.3       330.2       330.2       330.1       330.1    
  22    331.8       331.7       331.7       331.7       331.6       331.6       331.5       331.4       331.3       331.3    
        331.2       331.1       331.0       330.9       330.8       330.7       330.6       330.5       330.5       330.4    
        330.3       330.3       330.2       330.2       330.1    
  23    331.8       331.8       331.7       331.7       331.6       331.6       331.5       331.5       331.4       331.3    
        331.2       331.1       331.0       330.9       330.8       330.7       330.6       330.6       330.5       330.4    
        330.3       330.3       330.2       330.2       330.1    
  24    331.8       331.8       331.7       331.7       331.7       331.6       331.5       331.5       331.4       331.3    
        331.2       331.1       331.0       330.9       330.8       330.7       330.7       330.6       330.5       330.4    
        330.3       330.3       330.2       330.2       330.1    
  25    331.8       331.8       331.7       331.7       331.7       331.6       331.5       331.5       331.4       331.3    
        331.2       331.1       331.0       330.9       330.8       330.8       330.7       330.6       330.5       330.4    
        330.3       330.3       330.2       330.2       330.2    
1
              HEAD IN LAYER   5 AT END OF TIME STEP   9 IN STRESS PERIOD    2
  ---------------------------------------------------------------------------

            1           2           3           4           5           6           7           8           9          10
           11          12          13          14          15          16          17          18          19          20
           21          22          23          24          25
 ........................................................................................................................
   1    331.8       331.8       331.7       331.7       331.7       331.6       331.5       331.5       331.4       331.3    
        331.2       331.1       331.0       330.9       330.8       330.8       330.7       330.6       330.5       330.4    
        330.3       330.3       330.2       330.2       330.2    
   2    331.8       331.8       331.7       331.7       331.6       331.6       331.5       331.5       331.4       331.3    
        331.2       331.1       331.0       330.9       330.8       330.7       330.7       330.6       330.5       330.4    
        330.3       330.3       330.2       330.2       330.2    
   3    331.8       331.7       331.7       331.7       331.6       331.6       331.5       331.4       331.4       331.3    
        331.2       331.1       331.0       330.9       330.8       330.7       330.6       330.6       330.5       330.4    
        330.3       330.3       330.2       330.2       330.2    
   4    331.8       331.7       331.7       331.7       331.6       331.6       331.5       331.4       331.3       331.3    
        331.2       331.1       331.0       330.9       330.8       330.7       330.6       330.5       330.5       330.4    
        330.3       330.3       330.2       330.2       330.1    
   5    331.7       331.7       331.7       331.7       331.6       331.6       331.5       331.4       331.3       331.2    
        331.1       331.0       330.9       330.8       330.8       330.7       330.6       330.5       330.4       330.4    
        330.3       330.2       330.2       330.2       330.1    
   6    331.7       331.7       331.7       331.6       331.6       331.5       331.5       331.4       331.3       331.2    
        331.1       331.0       330.9       330.8       330.7       330.6       330.6       330.5       330.4       330.3    
        330.3       330.2       330.2       330.1       330.1    
   7    331.7       331.7       331.7       331.6       331.6       331.5       331.4       331.3       331.2       331.1    
        331.0       330.9       330.8       330.7       330.6       330.6       330.5       330.4       330.4       330.3    
        330.3       330.2       330.2       330.1       330.1    
   8    331.7       331.7       331.7       331.6       331.6       331.5       331.4       331.3       331.2       331.1    
        330.9       330.8       330.7       330.6       330.6       330.5       330.5       330.4       330.3       330.3    
        330.2       330.2       330.1       330.1       330.1    
   9    331.7       331.7       331.6       331.6       331.5       331.4       331.4       331.2       331.1       331.0    
        330.8       330.7       330.6       330.5       330.5       330.4       330.4       330.4       330.3       330.3    
        330.2       330.2       330.1       330.1       330.1    
  10    331.7       331.7       331.6       331.6       331.5       331.4       331.3       331.2       331.1       330.9    
        330.7       330.6       330.4       330.4       330.4       330.3       330.3       330.3       330.3       330.2    
        330.2       330.2       330.1       330.1       330.1    
  11    331.7       331.7       331.6       331.6       331.5       331.4       331.3       331.2       331.0       330.8    
        330.6       330.4       330.2       330.2       330.2       330.3       330.3       330.3       330.2       330.2    
        330.2       330.1       330.1       330.1       330.1    
  12    331.7       331.7       331.6       331.6       331.5       331.4       331.3       331.1       330.9       330.7    
        330.5       330.1       329.8       329.9       330.1       330.2       330.2       330.2       330.2       330.2    
        330.2       330.1       330.1       330.1       330.1    
  13    331.7       331.6       331.6       331.6       331.5       331.4       331.3       331.1       330.9       330.7    
        330.4       329.9       329.0       329.7       330.0       330.1       330.2       330.2       330.2       330.2    
        330.2       330.1       330.1       330.1       330.1    
  14    331.7       331.7       331.6       331.6       331.5       331.4       331.3       331.1       330.9       330.7    
        330.5       330.1       329.8       329.9       330.1       330.2       330.2       330.2       330.2       330.2    
        330.2       330.1       330.1       330.1       330.1    
  15    331.7       331.7       331.6       331.6       331.5       331.4       331.3       331.2       331.0       330.8    
        330.6       330.4       330.2       330.2       330.2       330.3       330.3       330.3       330.2       330.2    
        330.2       330.1       330.1       330.1       330.1    
  16    331.7       331.7       331.6       331.6       331.5       331.4       331.3       331.2       331.1       330.9    
        330.7       330.6       330.4       330.4       330.4       330.3       330.3       330.3       330.3       330.2    
        330.2       330.2       330.1       330.1       330.1    
  17    331.7       331.7       331.6       331.6       331.5       331.4       331.4       331.2       331.1       331.0    
        330.8       330.7       330.6       330.5       330.5       330.4       330.4       330.4       330.3       330.3    
        330.2       330.2       330.1       330.1       330.1    
  18    331.7       331.7       331.7       331.6       331.6       331.5       331.4       331.3       331.2       331.1    
        330.9       330.8       330.7       330.6       330.6       330.5       330.5       330.4       330.3       330.3    
        330.2       330.2       330.1       330.1       330.1    
  19    331.7       331.7       331.7       331.6       331.6       331.5       331.4       331.3       331.2       331.1    
        331.0       330.9       330.8       330.7       330.6       330.6       330.5       330.4       330.4       330.3    
        330.3       330.2       330.2       330.1       330.1    
  20    331.7       331.7       331.7       331.6       331.6       331.5       331.5       331.4       331.3       331.2    
        331.1       331.0       330.9       330.8       330.7       330.6       330.6       330.5       330.4       330.3    
        330.3       330.2       330.2       330.1       330.1    
  21    331.7       331.7       331.7       331.7       331.6       331.6       331.5       331.4       331.3       331.2    
        331.1       331.0       330.9       330.8       330.8       330.7       330.6       330.5       330.4       330.4    
        330.3       330.2       330.2       330.2       330.1    
  22    331.8       331.7       331.7       331.7       331.6       331.6       331.5       331.4       331.3       331.3    
        331.2       331.1       331.0       330.9       330.8       330.7       330.6       330.5       330.5       330.4    
        330.3       330.3       330.2       330.2       330.1    
  23    331.8       331.7       331.7       331.7       331.6       331.6       331.5       331.4       331.4       331.3    
        331.2       331.1       331.0       330.9       330.8       330.7       330.6       330.6       330.5       330.4    
        330.3       330.3       330.2       330.2       330.2    
  24    331.8       331.8       331.7       331.7       331.6       331.6       331.5       331.5       331.4       331.3    
        331.2       331.1       331.0       330.9       330.8       330.7       330.7       330.6       330.5       330.4    
        330.3       330.3       330.2       330.2       330.2    
  25    331.8       331.8       331.7       331.7       331.7       331.6       331.5       331.5       331.4       331.3    
        331.2       331.1       331.0       330.9       330.8       330.8       330.7       330.6       330.5       330.4    
        330.3       330.3       330.2       330.2       330.2    

 HEAD WILL BE SAVED ON UNIT   50 AT END OF TIME STEP    9, STRESS PERIOD    2



         TIME SUMMARY AT END OF TIME STEP    9 IN STRESS PERIOD    2
                    SECONDS     MINUTES      HOURS       DAYS        YEARS
                    -----------------------------------------------------------
   TIME STEP LENGTH 1.95388E+08 3.25647E+06  54275.      2261.4      6.1915    
 STRESS PERIOD TIME 5.70918E+08 9.51529E+06 1.58588E+05  6607.8      18.091    
         TOTAL TIME 1.78509E+10 2.97515E+08 4.95859E+06 2.06608E+05  565.66    
1
 
 SOLVING FOR HEAD 
     1 CALLS TO PCG ROUTINE FOR TIME STEP  10 IN STRESS PERIOD    2
     1 TOTAL ITERATIONS

 MAXIMUM HEAD CHANGE FOR EACH ITERATION (1 INDICATES THE FIRST INNER ITERATION):

    HEAD CHANGE    HEAD CHANGE    HEAD CHANGE    HEAD CHANGE    HEAD CHANGE 
   LAYER,ROW,COL  LAYER,ROW,COL  LAYER,ROW,COL  LAYER,ROW,COL  LAYER,ROW,COL
 ---------------------------------------------------------------------------
  1  0.1323E-04
   (  5, 20,  4)

 MAXIMUM RESIDUAL FOR EACH ITERATION (1 INDICATES THE FIRST INNER ITERATION):

    RESIDUAL       RESIDUAL       RESIDUAL       RESIDUAL       RESIDUAL    
   LAYER,ROW,COL  LAYER,ROW,COL  LAYER,ROW,COL  LAYER,ROW,COL  LAYER,ROW,COL
 ---------------------------------------------------------------------------
  1  -1.213    
   (  1,  4, 25)



 OUTPUT CONTROL FOR STRESS PERIOD    2   TIME STEP   10
    PRINT BUDGET
    SAVE BUDGET
    PRINT HEAD FOR ALL LAYERS
    SAVE HEAD FOR ALL LAYERS
 UBDSV1 SAVING "         STORAGE" ON UNIT  53 AT TIME STEP 10, STRESS PERIOD   2
 UBDSV2 SAVING "   CONSTANT HEAD" ON UNIT  53 AT TIME STEP 10, STRESS PERIOD   2
 UBDSV1 SAVING "FLOW RIGHT FACE " ON UNIT  53 AT TIME STEP 10, STRESS PERIOD   2
 UBDSV1 SAVING "FLOW FRONT FACE " ON UNIT  53 AT TIME STEP 10, STRESS PERIOD   2
 UBDSV1 SAVING "FLOW LOWER FACE " ON UNIT  53 AT TIME STEP 10, STRESS PERIOD   2
 UBDSV4 SAVING "   RIVER LEAKAGE" ON UNIT  53 AT TIME STEP 10, STRESS PERIOD   2
 UBDSV3 SAVING "        RECHARGE" ON UNIT  53 AT TIME STEP 10, STRESS PERIOD   2
1
              HEAD IN LAYER   1 AT END OF TIME STEP  10 IN STRESS PERIOD    2
  ---------------------------------------------------------------------------

            1           2           3           4           5           6           7           8           9          10
           11          12          13          14          15          16          17          18          19          20
           21          22          23          24          25
 ........................................................................................................................
   1    339.1       339.1       339.0       338.9       338.8       338.6       338.4       338.1       337.8       337.4    
        337.0       336.6       336.0       335.4       334.7       334.0       333.1       332.1       331.0       329.7    
        328.3       326.7       324.8       322.7       320.1    
   2    339.1       339.1       339.0       338.9       338.8       338.6       338.4       338.1       337.8       337.4    
        337.0       336.5       336.0       335.4       334.7       334.0       333.1       332.1       331.0       329.7    
        328.3       326.7       324.8       322.7       320.1    
   3    339.1       339.1       339.0       338.9       338.8       338.6       338.4       338.1       337.8       337.4    
        337.0       336.5       336.0       335.4       334.7       334.0       333.1       332.1       331.0       329.7    
        328.3       326.7       324.8       322.7       320.1    
   4    339.1       339.1       339.0       338.9       338.8       338.6       338.4       338.1       337.8       337.4    
        337.0       336.5       336.0       335.4       334.7       334.0       333.1       332.1       331.0       329.7    
        328.3       326.7       324.8       322.7       320.1    
   5    339.1       339.1       339.0       338.9       338.8       338.6       338.3       338.1       337.8       337.4    
        337.0       336.5       336.0       335.4       334.7       333.9       333.1       332.1       331.0       329.7    
        328.3       326.7       324.8       322.7       320.1    
   6    339.1       339.1       339.0       338.9       338.8       338.6       338.3       338.1       337.8       337.4    
        337.0       336.5       336.0       335.4       334.7       333.9       333.1       332.1       331.0       329.7    
        328.3       326.7       324.8       322.7       320.1    
   7    339.1       339.1       339.0       338.9       338.7       338.6       338.3       338.1       337.8       337.4    
        337.0       336.5       336.0       335.4       334.7       333.9       333.1       332.1       331.0       329.7    
        328.3       326.7       324.8       322.7       320.1    
   8    339.1       339.1       339.0       338.9       338.7       338.6       338.3       338.1       337.7       337.4    
        337.0       336.5       336.0       335.4       334.7       333.9       333.1       332.1       331.0       329.7    
        328.3       326.7       324.8       322.7       320.1    
   9    339.1       339.1       339.0       338.9       338.7       338.5       338.3       338.0       337.7       337.4    
        337.0       336.5       335.9       335.3       334.7       333.9       333.0       332.1       331.0       329.7    
        328.3       326.7       324.8       322.7       320.1    
  10    339.1       339.1       339.0       338.9       338.7       338.5       338.3       338.0       337.7       337.4    
        336.9       336.5       335.9       335.3       334.7       333.9       333.0       332.1       331.0       329.7    
        328.3       326.7       324.8       322.7       320.1    
  11    339.1       339.1       339.0       338.9       338.7       338.5       338.3       338.0       337.7       337.3    
        336.9       336.5       335.9       335.3       334.6       333.9       333.0       332.1       331.0       329.7    
        328.3       326.7       324.8       322.7       320.1    
  12    339.1       339.1       339.0       338.9       338.7       338.5       338.3       338.0       337.7       337.3    
        336.9       336.4       335.9       335.3       334.6       333.9       333.0       332.0       331.0       329.7    
        328.3       326.7       324.8       322.7       320.1    
  13    339.1       339.1       339.0       338.9       338.7       338.5       338.3       338.0       337.7       337.3    
        336.9       336.4       335.9       335.3       334.6       333.9       333.0       332.0       330.9       329.7    
        328.3       326.7       324.8       322.7       320.1    
  14    339.1       339.1       339.0       338.9       338.7       338.5       338.3       338.0       337.7       337.3    
        336.9       336.4       335.9       335.3       334.6       333.9       333.0       332.0       331.0       329.7    
        328.3       326.7       324.8       322.7       320.1    
  15    339.1       339.1       339.0       338.9       338.7       338.5       338.3       338.0       337.7       337.3    
        336.9       336.5       335.9       335.3       334.6       333.9       333.0       332.1       331.0       329.7    
        328.3       326.7       324.8       322.7       320.1    
  16    339.1       339.1       339.0       338.9       338.7       338.5       338.3       338.0       337.7       337.4    
        336.9       336.5       335.9       335.3       334.7       333.9       333.0       332.1       331.0       329.7    
        328.3       326.7       324.8       322.7       320.1    
  17    339.1       339.1       339.0       338.9       338.7       338.5       338.3       338.0       337.7       337.4    
        337.0       336.5       335.9       335.3       334.7       333.9       333.0       332.1       331.0       329.7    
        328.3       326.7       324.8       322.7       320.1    
  18    339.1       339.1       339.0       338.9       338.7       338.6       338.3       338.1       337.7       337.4    
        337.0       336.5       336.0       335.4       334.7       333.9       333.1       332.1       331.0       329.7    
        328.3       326.7       324.8       322.7       320.1    
  19    339.1       339.1       339.0       338.9       338.7       338.6       338.3       338.1       337.8       337.4    
        337.0       336.5       336.0       335.4       334.7       333.9       333.1       332.1       331.0       329.7    
        328.3       326.7       324.8       322.7       320.1    
  20    339.1       339.1       339.0       338.9       338.8       338.6       338.3       338.1       337.8       337.4    
        337.0       336.5       336.0       335.4       334.7       333.9       333.1       332.1       331.0       329.7    
        328.3       326.7       324.8       322.7       320.1    
  21    339.1       339.1       339.0       338.9       338.8       338.6       338.3       338.1       337.8       337.4    
        337.0       336.5       336.0       335.4       334.7       333.9       333.1       332.1       331.0       329.7    
        328.3       326.7       324.8       322.7       320.1    
  22    339.1       339.1       339.0       338.9       338.8       338.6       338.4       338.1       337.8       337.4    
        337.0       336.5       336.0       335.4       334.7       334.0       333.1       332.1       331.0       329.7    
        328.3       326.7       324.8       322.7       320.1    
  23    339.1       339.1       339.0       338.9       338.8       338.6       338.4       338.1       337.8       337.4    
        337.0       336.5       336.0       335.4       334.7       334.0       333.1       332.1       331.0       329.7    
        328.3       326.7       324.8       322.7       320.1    
  24    339.1       339.1       339.0       338.9       338.8       338.6       338.4       338.1       337.8       337.4    
        337.0       336.5       336.0       335.4       334.7       334.0       333.1       332.1       331.0       329.7    
        328.3       326.7       324.8       322.7       320.1    
  25    339.1       339.1       339.0       338.9       338.8       338.6       338.4       338.1       337.8       337.4    
        337.0       336.6       336.0       335.4       334.7       334.0       333.1       332.1       331.0       329.7    
        328.3       326.7       324.8       322.7       320.1    
1
              HEAD IN LAYER   2 AT END OF TIME STEP  10 IN STRESS PERIOD    2
  ---------------------------------------------------------------------------

            1           2           3           4           5           6           7           8           9          10
           11          12          13          14          15          16          17          18          19          20
           21          22          23          24          25
 ........................................................................................................................
   1    339.1       339.1       339.0       338.9       338.7       338.6       338.3       338.1       337.8       337.4    
        337.0       336.5       336.0       335.4       334.7       333.9       333.1       332.1       331.0       329.7    
        328.3       326.7       324.8       322.7       320.3    
   2    339.1       339.1       339.0       338.9       338.7       338.6       338.3       338.1       337.8       337.4    
        337.0       336.5       336.0       335.4       334.7       333.9       333.1       332.1       331.0       329.7    
        328.3       326.7       324.8       322.7       320.3    
   3    339.1       339.1       339.0       338.9       338.7       338.6       338.3       338.1       337.8       337.4    
        337.0       336.5       336.0       335.4       334.7       333.9       333.1       332.1       331.0       329.7    
        328.3       326.7       324.8       322.7       320.3    
   4    339.1       339.1       339.0       338.9       338.7       338.6       338.3       338.1       337.8       337.4    
        337.0       336.5       336.0       335.4       334.7       333.9       333.1       332.1       331.0       329.7    
        328.3       326.7       324.8       322.7       320.3    
   5    339.1       339.1       339.0       338.9       338.7       338.5       338.3       338.1       337.7       337.4    
        337.0       336.5       336.0       335.4       334.7       333.9       333.1       332.1       331.0       329.7    
        328.3       326.7       324.8       322.7       320.3    
   6    339.1       339.1       339.0       338.9       338.7       338.5       338.3       338.1       337.7       337.4    
        337.0       336.5       336.0       335.4       334.7       333.9       333.1       332.1       331.0       329.7    
        328.3       326.7       324.8       322.7       320.3    
   7    339.1       339.0       339.0       338.9       338.7       338.5       338.3       338.0       337.7       337.4    
        337.0       336.5       336.0       335.4       334.7       333.9       333.0       332.1       331.0       329.7    
        328.3       326.7       324.8       322.7       320.3    
   8    339.1       339.0       339.0       338.9       338.7       338.5       338.3       338.0       337.7       337.4    
        336.9       336.5       335.9       335.3       334.7       333.9       333.0       332.1       331.0       329.7    
        328.3       326.7       324.8       322.7       320.3    
   9    339.1       339.0       339.0       338.9       338.7       338.5       338.3       338.0       337.7       337.3    
        336.9       336.5       335.9       335.3       334.6       333.9       333.0       332.1       331.0       329.7    
        328.3       326.7       324.8       322.7       320.3    
  10    339.1       339.0       339.0       338.9       338.7       338.5       338.3       338.0       337.7       337.3    
        336.9       336.4       335.9       335.3       334.6       333.9       333.0       332.0       330.9       329.7    
        328.3       326.7       324.8       322.7       320.3    
  11    339.1       339.0       339.0       338.8       338.7       338.5       338.3       338.0       337.7       337.3    
        336.9       336.4       335.9       335.3       334.6       333.9       333.0       332.0       330.9       329.7    
        328.3       326.7       324.8       322.7       320.3    
  12    339.1       339.0       339.0       338.8       338.7       338.5       338.3       338.0       337.7       337.3    
        336.9       336.4       335.9       335.3       334.6       333.9       333.0       332.0       330.9       329.7    
        328.3       326.7       324.8       322.7       320.3    
  13    339.1       339.0       339.0       338.8       338.7       338.5       338.3       338.0       337.7       337.3    
        336.9       336.4       335.9       335.3       334.6       333.9       333.0       332.0       330.9       329.7    
        328.3       326.7       324.8       322.7       320.3    
  14    339.1       339.0       339.0       338.8       338.7       338.5       338.3       338.0       337.7       337.3    
        336.9       336.4       335.9       335.3       334.6       333.9       333.0       332.0       330.9       329.7    
        328.3       326.7       324.8       322.7       320.3    
  15    339.1       339.0       339.0       338.8       338.7       338.5       338.3       338.0       337.7       337.3    
        336.9       336.4       335.9       335.3       334.6       333.9       333.0       332.0       330.9       329.7    
        328.3       326.7       324.8       322.7       320.3    
  16    339.1       339.0       339.0       338.9       338.7       338.5       338.3       338.0       337.7       337.3    
        336.9       336.4       335.9       335.3       334.6       333.9       333.0       332.0       330.9       329.7    
        328.3       326.7       324.8       322.7       320.3    
  17    339.1       339.0       339.0       338.9       338.7       338.5       338.3       338.0       337.7       337.3    
        336.9       336.5       335.9       335.3       334.6       333.9       333.0       332.1       331.0       329.7    
        328.3       326.7       324.8       322.7       320.3    
  18    339.1       339.0       339.0       338.9       338.7       338.5       338.3       338.0       337.7       337.4    
        336.9       336.5       335.9       335.3       334.7       333.9       333.0       332.1       331.0       329.7    
        328.3       326.7       324.8       322.7       320.3    
  19    339.1       339.0       339.0       338.9       338.7       338.5       338.3       338.0       337.7       337.4    
        337.0       336.5       336.0       335.4       334.7       333.9       333.0       332.1       331.0       329.7    
        328.3       326.7       324.8       322.7       320.3    
  20    339.1       339.1       339.0       338.9       338.7       338.5       338.3       338.1       337.7       337.4    
        337.0       336.5       336.0       335.4       334.7       333.9       333.1       332.1       331.0       329.7    
        328.3       326.7       324.8       322.7       320.3    
  21    339.1       339.1       339.0       338.9       338.7       338.5       338.3       338.1       337.7       337.4    
        337.0       336.5       336.0       335.4       334.7       333.9       333.1       332.1       331.0       329.7    
        328.3       326.7       324.8       322.7       320.3    
  22    339.1       339.1       339.0       338.9       338.7       338.6       338.3       338.1       337.8       337.4    
        337.0       336.5       336.0       335.4       334.7       333.9       333.1       332.1       331.0       329.7    
        328.3       326.7       324.8       322.7       320.3    
  23    339.1       339.1       339.0       338.9       338.7       338.6       338.3       338.1       337.8       337.4    
        337.0       336.5       336.0       335.4       334.7       333.9       333.1       332.1       331.0       329.7    
        328.3       326.7       324.8       322.7       320.3    
  24    339.1       339.1       339.0       338.9       338.7       338.6       338.3       338.1       337.8       337.4    
        337.0       336.5       336.0       335.4       334.7       333.9       333.1       332.1       331.0       329.7    
        328.3       326.7       324.8       322.7       320.3    
  25    339.1       339.1       339.0       338.9       338.7       338.6       338.3       338.1       337.8       337.4    
        337.0       336.5       336.0       335.4       334.7       333.9       333.1       332.1       331.0       329.7    
        328.3       326.7       324.8       322.7       320.3    
1
              HEAD IN LAYER   3 AT END OF TIME STEP  10 IN STRESS PERIOD    2
  ---------------------------------------------------------------------------

            1           2           3           4           5           6           7           8           9          10
           11          12          13          14          15          16          17          18          19          20
           21          22          23          24          25
 ........................................................................................................................
   1    335.4       335.4       335.4       335.3       335.2       335.1       334.9       334.8       334.6       334.4    
        334.1       333.8       333.5       333.2       332.8       332.4       331.9       331.3       330.7       330.1    
        329.3       328.5       327.5       326.4       325.3    
   2    335.4       335.4       335.4       335.3       335.2       335.1       334.9       334.8       334.6       334.4    
        334.1       333.8       333.5       333.2       332.8       332.3       331.9       331.3       330.7       330.1    
        329.3       328.5       327.5       326.4       325.2    
   3    335.4       335.4       335.4       335.3       335.2       335.1       334.9       334.8       334.6       334.3    
        334.1       333.8       333.5       333.2       332.8       332.3       331.9       331.3       330.7       330.1    
        329.3       328.5       327.5       326.4       325.2    
   4    335.4       335.4       335.4       335.3       335.2       335.1       334.9       334.7       334.6       334.3    
        334.1       333.8       333.5       333.1       332.7       332.3       331.8       331.3       330.7       330.1    
        329.3       328.5       327.5       326.4       325.2    
   5    335.4       335.4       335.3       335.3       335.2       335.1       334.9       334.7       334.5       334.3    
        334.1       333.8       333.5       333.1       332.7       332.3       331.8       331.3       330.7       330.0    
        329.3       328.5       327.5       326.4       325.2    
   6    335.4       335.4       335.3       335.3       335.2       335.0       334.9       334.7       334.5       334.3    
        334.0       333.7       333.4       333.1       332.7       332.3       331.8       331.3       330.7       330.0    
        329.3       328.4       327.5       326.4       325.2    
   7    335.4       335.4       335.3       335.3       335.2       335.0       334.9       334.7       334.5       334.2    
        334.0       333.7       333.4       333.0       332.7       332.2       331.8       331.3       330.7       330.0    
        329.3       328.4       327.5       326.4       325.2    
   8    335.4       335.4       335.3       335.2       335.1       335.0       334.8       334.7       334.5       334.2    
        333.9       333.6       333.3       333.0       332.6       332.2       331.7       331.2       330.7       330.0    
        329.3       328.4       327.5       326.4       325.2    
   9    335.4       335.4       335.3       335.2       335.1       335.0       334.8       334.6       334.4       334.2    
        333.9       333.6       333.3       332.9       332.6       332.2       331.7       331.2       330.6       330.0    
        329.2       328.4       327.5       326.4       325.2    
  10    335.4       335.4       335.3       335.2       335.1       335.0       334.8       334.6       334.4       334.1    
        333.8       333.5       333.2       332.8       332.5       332.1       331.7       331.2       330.6       330.0    
        329.2       328.4       327.5       326.4       325.2    
  11    335.4       335.3       335.3       335.2       335.1       335.0       334.8       334.6       334.3       334.1    
        333.8       333.4       333.0       332.7       332.4       332.1       331.6       331.2       330.6       330.0    
        329.2       328.4       327.5       326.4       325.2    
  12    335.4       335.3       335.3       335.2       335.1       335.0       334.8       334.6       334.3       334.0    
        333.7       333.3       332.8       332.6       332.4       332.0       331.6       331.1       330.6       329.9    
        329.2       328.4       327.5       326.4       325.2    
  13    335.4       335.3       335.3       335.2       335.1       335.0       334.8       334.6       334.3       334.0    
        333.6       333.1       332.3       332.5       332.3       332.0       331.6       331.1       330.6       329.9    
        329.2       328.4       327.5       326.4       325.2    
  14    335.4       335.3       335.3       335.2       335.1       335.0       334.8       334.6       334.3       334.0    
        333.7       333.3       332.8       332.6       332.4       332.0       331.6       331.1       330.6       329.9    
        329.2       328.4       327.5       326.4       325.2    
  15    335.4       335.3       335.3       335.2       335.1       335.0       334.8       334.6       334.3       334.1    
        333.8       333.4       333.0       332.7       332.4       332.1       331.6       331.2       330.6       330.0    
        329.2       328.4       327.5       326.4       325.2    
  16    335.4       335.4       335.3       335.2       335.1       335.0       334.8       334.6       334.4       334.1    
        333.8       333.5       333.2       332.8       332.5       332.1       331.7       331.2       330.6       330.0    
        329.2       328.4       327.5       326.4       325.2    
  17    335.4       335.4       335.3       335.2       335.1       335.0       334.8       334.6       334.4       334.2    
        333.9       333.6       333.3       332.9       332.6       332.2       331.7       331.2       330.6       330.0    
        329.2       328.4       327.5       326.4       325.2    
  18    335.4       335.4       335.3       335.2       335.1       335.0       334.8       334.7       334.5       334.2    
        333.9       333.6       333.3       333.0       332.6       332.2       331.7       331.2       330.7       330.0    
        329.3       328.4       327.5       326.4       325.2    
  19    335.4       335.4       335.3       335.3       335.2       335.0       334.9       334.7       334.5       334.2    
        334.0       333.7       333.4       333.0       332.7       332.2       331.8       331.3       330.7       330.0    
        329.3       328.4       327.5       326.4       325.2    
  20    335.4       335.4       335.3       335.3       335.2       335.0       334.9       334.7       334.5       334.3    
        334.0       333.7       333.4       333.1       332.7       332.3       331.8       331.3       330.7       330.0    
        329.3       328.4       327.5       326.4       325.2    
  21    335.4       335.4       335.3       335.3       335.2       335.1       334.9       334.7       334.5       334.3    
        334.1       333.8       333.5       333.1       332.7       332.3       331.8       331.3       330.7       330.0    
        329.3       328.5       327.5       326.4       325.2    
  22    335.4       335.4       335.4       335.3       335.2       335.1       334.9       334.7       334.6       334.3    
        334.1       333.8       333.5       333.1       332.7       332.3       331.8       331.3       330.7       330.1    
        329.3       328.5       327.5       326.4       325.2    
  23    335.4       335.4       335.4       335.3       335.2       335.1       334.9       334.8       334.6       334.3    
        334.1       333.8       333.5       333.2       332.8       332.3       331.9       331.3       330.7       330.1    
        329.3       328.5       327.5       326.4       325.2    
  24    335.4       335.4       335.4       335.3       335.2       335.1       334.9       334.8       334.6       334.4    
        334.1       333.8       333.5       333.2       332.8       332.3       331.9       331.3       330.7       330.1    
        329.3       328.5       327.5       326.4       325.2    
  25    335.4       335.4       335.4       335.3       335.2       335.1       334.9       334.8       334.6       334.4    
        334.1       333.8       333.5       333.2       332.8       332.4       331.9       331.3       330.7       330.1    
        329.3       328.5       327.5       326.4       325.3    
1
              HEAD IN LAYER   4 AT END OF TIME STEP  10 IN STRESS PERIOD    2
  ---------------------------------------------------------------------------

            1           2           3           4           5           6           7           8           9          10
           11          12          13          14          15          16          17          18          19          20
           21          22          23          24          25
 ........................................................................................................................
   1    331.8       331.8       331.7       331.7       331.7       331.6       331.5       331.5       331.4       331.3    
        331.2       331.1       331.0       330.9       330.8       330.8       330.7       330.6       330.5       330.4    
        330.3       330.3       330.2       330.2       330.2    
   2    331.8       331.8       331.7       331.7       331.7       331.6       331.5       331.5       331.4       331.3    
        331.2       331.1       331.0       330.9       330.8       330.7       330.7       330.6       330.5       330.4    
        330.3       330.3       330.2       330.2       330.1    
   3    331.8       331.8       331.7       331.7       331.6       331.6       331.5       331.5       331.4       331.3    
        331.2       331.1       331.0       330.9       330.8       330.7       330.6       330.6       330.5       330.4    
        330.3       330.3       330.2       330.2       330.1    
   4    331.8       331.7       331.7       331.7       331.6       331.6       331.5       331.4       331.3       331.3    
        331.2       331.1       331.0       330.9       330.8       330.7       330.6       330.5       330.5       330.4    
        330.3       330.3       330.2       330.2       330.1    
   5    331.8       331.7       331.7       331.7       331.6       331.6       331.5       331.4       331.3       331.2    
        331.1       331.0       330.9       330.8       330.8       330.7       330.6       330.5       330.4       330.4    
        330.3       330.2       330.2       330.1       330.1    
   6    331.7       331.7       331.7       331.7       331.6       331.5       331.5       331.4       331.3       331.2    
        331.1       331.0       330.9       330.8       330.7       330.6       330.6       330.5       330.4       330.3    
        330.3       330.2       330.2       330.1       330.1    
   7    331.7       331.7       331.7       331.6       331.6       331.5       331.4       331.3       331.2       331.1    
        331.0       330.9       330.8       330.7       330.6       330.6       330.5       330.4       330.4       330.3    
        330.3       330.2       330.2       330.1       330.1    
   8    331.7       331.7       331.7       331.6       331.6       331.5       331.4       331.3       331.2       331.1    
        330.9       330.8       330.7       330.6       330.6       330.5       330.5       330.4       330.3       330.3    
        330.2       330.2       330.1       330.1       330.1    
   9    331.7       331.7       331.7       331.6       331.5       331.5       331.4       331.2       331.1       331.0    
        330.8       330.7       330.6       330.5       330.5       330.4       330.4       330.4       330.3       330.3    
        330.2       330.2       330.1       330.1       330.1    
  10    331.7       331.7       331.6       331.6       331.5       331.4       331.3       331.2       331.1       330.9    
        330.7       330.6       330.4       330.4       330.4       330.3       330.3       330.3       330.3       330.2    
        330.2       330.2       330.1       330.1       330.1    
  11    331.7       331.7       331.6       331.6       331.5       331.4       331.3       331.2       331.0       330.8    
        330.6       330.4       330.2       330.2       330.2       330.3       330.3       330.3       330.2       330.2    
        330.2       330.1       330.1       330.1       330.1    
  12    331.7       331.7       331.6       331.6       331.5       331.4       331.3       331.1       331.0       330.7    
        330.5       330.1       329.8       329.9       330.1       330.2       330.2       330.2       330.2       330.2    
        330.2       330.1       330.1       330.1       330.1    
  13    331.7       331.7       331.6       331.6       331.5       331.4       331.3       331.1       330.9       330.7    
        330.4       329.8       328.7       329.7       330.0       330.1       330.2       330.2       330.2       330.2    
        330.2       330.1       330.1       330.1       330.1    
  14    331.7       331.7       331.6       331.6       331.5       331.4       331.3       331.1       331.0       330.7    
        330.5       330.1       329.8       329.9       330.1       330.2       330.2       330.2       330.2       330.2    
        330.2       330.1       330.1       330.1       330.1    
  15    331.7       331.7       331.6       331.6       331.5       331.4       331.3       331.2       331.0       330.8    
        330.6       330.4       330.2       330.2       330.2       330.3       330.3       330.3       330.2       330.2    
        330.2       330.1       330.1       330.1       330.1    
  16    331.7       331.7       331.6       331.6       331.5       331.4       331.3       331.2       331.1       330.9    
        330.7       330.6       330.4       330.4       330.4       330.3       330.3       330.3       330.3       330.2    
        330.2       330.2       330.1       330.1       330.1    
  17    331.7       331.7       331.7       331.6       331.5       331.5       331.4       331.2       331.1       331.0    
        330.8       330.7       330.6       330.5       330.5       330.4       330.4       330.4       330.3       330.3    
        330.2       330.2       330.1       330.1       330.1    
  18    331.7       331.7       331.7       331.6       331.6       331.5       331.4       331.3       331.2       331.1    
        330.9       330.8       330.7       330.6       330.6       330.5       330.5       330.4       330.3       330.3    
        330.2       330.2       330.1       330.1       330.1    
  19    331.7       331.7       331.7       331.6       331.6       331.5       331.4       331.3       331.2       331.1    
        331.0       330.9       330.8       330.7       330.6       330.6       330.5       330.4       330.4       330.3    
        330.3       330.2       330.2       330.1       330.1    
  20    331.7       331.7       331.7       331.7       331.6       331.5       331.5       331.4       331.3       331.2    
        331.1       331.0       330.9       330.8       330.7       330.6       330.6       330.5       330.4       330.3    
        330.3       330.2       330.2       330.1       330.1    
  21    331.8       331.7       331.7       331.7       331.6       331.6       331.5       331.4       331.3       331.2    
        331.1       331.0       330.9       330.8       330.8       330.7       330.6       330.5       330.4       330.4    
        330.3       330.2       330.2       330.1       330.1    
  22    331.8       331.7       331.7       331.7       331.6       331.6       331.5       331.4       331.3       331.3    
        331.2       331.1       331.0       330.9       330.8       330.7       330.6       330.5       330.5       330.4    
        330.3       330.3       330.2       330.2       330.1    
  23    331.8       331.8       331.7       331.7       331.6       331.6       331.5       331.5       331.4       331.3    
        331.2       331.1       331.0       330.9       330.8       330.7       330.6       330.6       330.5       330.4    
        330.3       330.3       330.2       330.2       330.1    
  24    331.8       331.8       331.7       331.7       331.7       331.6       331.5       331.5       331.4       331.3    
        331.2       331.1       331.0       330.9       330.8       330.7       330.7       330.6       330.5       330.4    
        330.3       330.3       330.2       330.2       330.1    
  25    331.8       331.8       331.7       331.7       331.7       331.6       331.5       331.5       331.4       331.3    
        331.2       331.1       331.0       330.9       330.8       330.8       330.7       330.6       330.5       330.4    
        330.3       330.3       330.2       330.2       330.2    
1
              HEAD IN LAYER   5 AT END OF TIME STEP  10 IN STRESS PERIOD    2
  ---------------------------------------------------------------------------

            1           2           3           4           5           6           7           8           9          10
           11          12          13          14          15          16          17          18          19          20
           21          22          23          24          25
 ........................................................................................................................
   1    331.8       331.8       331.7       331.7       331.7       331.6       331.5       331.5       331.4       331.3    
        331.2       331.1       331.0       330.9       330.8       330.8       330.7       330.6       330.5       330.4    
        330.3       330.3       330.2       330.2       330.2    
   2    331.8       331.8       331.7       331.7       331.6       331.6       331.5       331.5       331.4       331.3    
        331.2       331.1       331.0       330.9       330.8       330.7       330.7       330.6       330.5       330.4    
        330.3       330.3       330.2       330.2       330.2    
   3    331.8       331.7       331.7       331.7       331.6       331.6       331.5       331.4       331.4       331.3    
        331.2       331.1       331.0       330.9       330.8       330.7       330.6       330.6       330.5       330.4    
        330.3       330.3       330.2       330.2       330.2    
   4    331.8       331.7       331.7       331.7       331.6       331.6       331.5       331.4       331.3       331.3    
        331.2       331.1       331.0       330.9       330.8       330.7       330.6       330.5       330.5       330.4    
        330.3       330.3       330.2       330.2       330.1    
   5    331.7       331.7       331.7       331.7       331.6       331.6       331.5       331.4       331.3       331.2    
        331.1       331.0       330.9       330.8       330.8       330.7       330.6       330.5       330.4       330.4    
        330.3       330.2       330.2       330.2       330.1    
   6    331.7       331.7       331.7       331.6       331.6       331.5       331.5       331.4       331.3       331.2    
        331.1       331.0       330.9       330.8       330.7       330.6       330.6       330.5       330.4       330.3    
        330.3       330.2       330.2       330.1       330.1    
   7    331.7       331.7       331.7       331.6       331.6       331.5       331.4       331.3       331.2       331.1    
        331.0       330.9       330.8       330.7       330.6       330.6       330.5       330.4       330.4       330.3    
        330.3       330.2       330.2       330.1       330.1    
   8    331.7       331.7       331.7       331.6       331.6       331.5       331.4       331.3       331.2       331.1    
        330.9       330.8       330.7       330.6       330.6       330.5       330.5       330.4       330.3       330.3    
        330.2       330.2       330.1       330.1       330.1    
   9    331.7       331.7       331.6       331.6       331.5       331.4       331.4       331.2       331.1       331.0    
        330.8       330.7       330.6       330.5       330.5       330.4       330.4       330.4       330.3       330.3    
        330.2       330.2       330.1       330.1       330.1    
  10    331.7       331.7       331.6       331.6       331.5       331.4       331.3       331.2       331.1       330.9    
        330.7       330.6       330.4       330.4       330.4       330.3       330.3       330.3       330.3       330.2    
        330.2       330.2       330.1       330.1       330.1    
  11    331.7       331.7       331.6       331.6       331.5       331.4       331.3       331.2       331.0       330.8    
        330.6       330.4       330.2       330.2       330.2       330.3       330.3       330.3       330.2       330.2    
        330.2       330.1       330.1       330.1       330.1    
  12    331.7       331.7       331.6       331.6       331.5       331.4       331.3       331.1       330.9       330.7    
        330.5       330.1       329.8       329.9       330.1       330.2       330.2       330.2       330.2       330.2    
        330.2       330.1       330.1       330.1       330.1    
  13    331.7       331.6       331.6       331.6       331.5       331.4       331.3       331.1       330.9       330.7    
        330.4       329.9       329.0       329.7       330.0       330.1       330.2       330.2       330.2       330.2    
        330.2       330.1       330.1       330.1       330.1    
  14    331.7       331.7       331.6       331.6       331.5       331.4       331.3       331.1       330.9       330.7    
        330.5       330.1       329.8       329.9       330.1       330.2       330.2       330.2       330.2       330.2    
        330.2       330.1       330.1       330.1       330.1    
  15    331.7       331.7       331.6       331.6       331.5       331.4       331.3       331.2       331.0       330.8    
        330.6       330.4       330.2       330.2       330.2       330.3       330.3       330.3       330.2       330.2    
        330.2       330.1       330.1       330.1       330.1    
  16    331.7       331.7       331.6       331.6       331.5       331.4       331.3       331.2       331.1       330.9    
        330.7       330.6       330.4       330.4       330.4       330.3       330.3       330.3       330.3       330.2    
        330.2       330.2       330.1       330.1       330.1    
  17    331.7       331.7       331.6       331.6       331.5       331.4       331.4       331.2       331.1       331.0    
        330.8       330.7       330.6       330.5       330.5       330.4       330.4       330.4       330.3       330.3    
        330.2       330.2       330.1       330.1       330.1    
  18    331.7       331.7       331.7       331.6       331.6       331.5       331.4       331.3       331.2       331.1    
        330.9       330.8       330.7       330.6       330.6       330.5       330.5       330.4       330.3       330.3    
        330.2       330.2       330.1       330.1       330.1    
  19    331.7       331.7       331.7       331.6       331.6       331.5       331.4       331.3       331.2       331.1    
        331.0       330.9       330.8       330.7       330.6       330.6       330.5       330.4       330.4       330.3    
        330.3       330.2       330.2       330.1       330.1    
  20    331.7       331.7       331.7       331.6       331.6       331.5       331.5       331.4       331.3       331.2    
        331.1       331.0       330.9       330.8       330.7       330.6       330.6       330.5       330.4       330.3    
        330.3       330.2       330.2       330.1       330.1    
  21    331.7       331.7       331.7       331.7       331.6       331.6       331.5       331.4       331.3       331.2    
        331.1       331.0       330.9       330.8       330.8       330.7       330.6       330.5       330.4       330.4    
        330.3       330.2       330.2       330.2       330.1    
  22    331.8       331.7       331.7       331.7       331.6       331.6       331.5       331.4       331.3       331.3    
        331.2       331.1       331.0       330.9       330.8       330.7       330.6       330.5       330.5       330.4    
        330.3       330.3       330.2       330.2       330.1    
  23    331.8       331.7       331.7       331.7       331.6       331.6       331.5       331.4       331.4       331.3    
        331.2       331.1       331.0       330.9       330.8       330.7       330.6       330.6       330.5       330.4    
        330.3       330.3       330.2       330.2       330.2    
  24    331.8       331.8       331.7       331.7       331.6       331.6       331.5       331.5       331.4       331.3    
        331.2       331.1       331.0       330.9       330.8       330.7       330.7       330.6       330.5       330.4    
        330.3       330.3       330.2       330.2       330.2    
  25    331.8       331.8       331.7       331.7       331.7       331.6       331.5       331.5       331.4       331.3    
        331.2       331.1       331.0       330.9       330.8       330.8       330.7       330.6       330.5       330.4    
        330.3       330.3       330.2       330.2       330.2    

 HEAD WILL BE SAVED ON UNIT   50 AT END OF TIME STEP   10, STRESS PERIOD    2
1
  VOLUMETRIC BUDGET FOR ENTIRE MODEL AT END OF TIME STEP   10, STRESS PERIOD   2
  ------------------------------------------------------------------------------

     CUMULATIVE VOLUMES      L**3       RATES FOR THIS TIME STEP      L**3/T
     ------------------                 ------------------------

           IN:                                      IN:
           ---                                      ---
             STORAGE =         307.2020               STORAGE =       6.3151E-03
       CONSTANT HEAD =           0.0000         CONSTANT HEAD =           0.0000
       RIVER LEAKAGE =           0.0000         RIVER LEAKAGE =           0.0000
            RECHARGE =104999993344.0000              RECHARGE =      500000.0000
                MNW2 =           0.0000                  MNW2 =           0.0000

            TOTAL IN =104999993344.0000              TOTAL IN =      500000.0000

          OUT:                                     OUT:
          ----                                     ----
             STORAGE =         151.1989               STORAGE =       8.0110E-03
       CONSTANT HEAD =           0.0000         CONSTANT HEAD =           0.0000
       RIVER LEAKAGE = 73498746880.0000         RIVER LEAKAGE =      349999.5000
            RECHARGE =           0.0000              RECHARGE =           0.0000
                MNW2 = 31500003328.0000                  MNW2 =      150000.0000

           TOTAL OUT =104998748160.0000             TOTAL OUT =      499999.5000

            IN - OUT =     1245184.0000              IN - OUT =           0.5000

 PERCENT DISCREPANCY =           0.00     PERCENT DISCREPANCY =           0.00






         TIME SUMMARY AT END OF TIME STEP   10 IN STRESS PERIOD    2
                    SECONDS     MINUTES      HOURS       DAYS        YEARS
                    -----------------------------------------------------------
   TIME STEP LENGTH 2.93082E+08 4.88471E+06  81412.      3392.2      9.2872    
 STRESS PERIOD TIME 8.64000E+08 1.44000E+07 2.40000E+05  10000.      27.379    
         TOTAL TIME 1.81440E+10 3.02400E+08 5.04000E+06 2.10000E+05  574.95    
1
1
                            STRESS PERIOD NO.    3, LENGTH =   200000.0    
                            -----------------------------------------------

                              NUMBER OF TIME STEPS =     1

                               MULTIPLIER FOR DELT =     1.000

                            INITIAL TIME STEP SIZE =   200000.0    

 REACH NO.  LAYER   ROW   COL     STAGE      CONDUCTANCE     BOTTOM EL.         IFACE           
 -----------------------------------------------------------------------------------------------
      1      1      1     25       320.0          0.1000E+06       315.0           6.000    
      2      1      2     25       320.0          0.1000E+06       315.0           6.000    
      3      1      3     25       320.0          0.1000E+06       315.0           6.000    
      4      1      4     25       320.0          0.1000E+06       315.0           6.000    
      5      1      5     25       320.0          0.1000E+06       315.0           6.000    
      6      1      6     25       320.0          0.1000E+06       315.0           6.000    
      7      1      7     25       320.0          0.1000E+06       315.0           6.000    
      8      1      8     25       320.0          0.1000E+06       315.0           6.000    
      9      1      9     25       320.0          0.1000E+06       315.0           6.000    
     10      1     10     25       320.0          0.1000E+06       315.0           6.000    
     11      1     11     25       320.0          0.1000E+06       315.0           6.000    
     12      1     12     25       320.0          0.1000E+06       315.0           6.000    
     13      1     13     25       320.0          0.1000E+06       315.0           6.000    
     14      1     14     25       320.0          0.1000E+06       315.0           6.000    
     15      1     15     25       320.0          0.1000E+06       315.0           6.000    
     16      1     16     25       320.0          0.1000E+06       315.0           6.000    
     17      1     17     25       320.0          0.1000E+06       315.0           6.000    
     18      1     18     25       320.0          0.1000E+06       315.0           6.000    
     19      1     19     25       320.0          0.1000E+06       315.0           6.000    
     20      1     20     25       320.0          0.1000E+06       315.0           6.000    
     21      1     21     25       320.0          0.1000E+06       315.0           6.000    
     22      1     22     25       320.0          0.1000E+06       315.0           6.000    
     23      1     23     25       320.0          0.1000E+06       315.0           6.000    
     24      1     24     25       320.0          0.1000E+06       315.0           6.000    
     25      1     25     25       320.0          0.1000E+06       315.0           6.000    

     25 RIVER REACHES

                 RECHARGE =  5.000000E-03
 

 REUSING MNW2 INFORMATION FROM LAST STRESS PERIOD
 
 SOLVING FOR HEAD 


     1 CALLS TO PCG ROUTINE FOR TIME STEP   1 IN STRESS PERIOD    3
     1 TOTAL ITERATIONS

 MAXIMUM HEAD CHANGE FOR EACH ITERATION (1 INDICATES THE FIRST INNER ITERATION):

    HEAD CHANGE    HEAD CHANGE    HEAD CHANGE    HEAD CHANGE    HEAD CHANGE 
   LAYER,ROW,COL  LAYER,ROW,COL  LAYER,ROW,COL  LAYER,ROW,COL  LAYER,ROW,COL
 ---------------------------------------------------------------------------
  1 -0.1150E-04
   (  3, 25,  3)

 MAXIMUM RESIDUAL FOR EACH ITERATION (1 INDICATES THE FIRST INNER ITERATION):

    RESIDUAL       RESIDUAL       RESIDUAL       RESIDUAL       RESIDUAL    
   LAYER,ROW,COL  LAYER,ROW,COL  LAYER,ROW,COL  LAYER,ROW,COL  LAYER,ROW,COL
 ---------------------------------------------------------------------------
  1 -0.4608    
   (  4, 13, 13)



 OUTPUT CONTROL FOR STRESS PERIOD    3   TIME STEP    1
    PRINT BUDGET
    SAVE BUDGET
    PRINT HEAD FOR ALL LAYERS
    SAVE HEAD FOR ALL LAYERS
 UBDSV2 SAVING "   CONSTANT HEAD" ON UNIT  53 AT TIME STEP  1, STRESS PERIOD   3
 UBDSV1 SAVING "FLOW RIGHT FACE " ON UNIT  53 AT TIME STEP  1, STRESS PERIOD   3
 UBDSV1 SAVING "FLOW FRONT FACE " ON UNIT  53 AT TIME STEP  1, STRESS PERIOD   3
 UBDSV1 SAVING "FLOW LOWER FACE " ON UNIT  53 AT TIME STEP  1, STRESS PERIOD   3
 UBDSV4 SAVING "   RIVER LEAKAGE" ON UNIT  53 AT TIME STEP  1, STRESS PERIOD   3
 UBDSV3 SAVING "        RECHARGE" ON UNIT  53 AT TIME STEP  1, STRESS PERIOD   3
1
              HEAD IN LAYER   1 AT END OF TIME STEP   1 IN STRESS PERIOD    3
  ---------------------------------------------------------------------------

            1           2           3           4           5           6           7           8           9          10
           11          12          13          14          15          16          17          18          19          20
           21          22          23          24          25
 ........................................................................................................................
   1    339.1       339.1       339.0       338.9       338.8       338.6       338.4       338.1       337.8       337.4    
        337.0       336.6       336.0       335.4       334.7       334.0       333.1       332.1       331.0       329.7    
        328.3       326.7       324.8       322.7       320.1    
   2    339.1       339.1       339.0       338.9       338.8       338.6       338.4       338.1       337.8       337.4    
        337.0       336.5       336.0       335.4       334.7       334.0       333.1       332.1       331.0       329.7    
        328.3       326.7       324.8       322.7       320.1    
   3    339.1       339.1       339.0       338.9       338.8       338.6       338.4       338.1       337.8       337.4    
        337.0       336.5       336.0       335.4       334.7       334.0       333.1       332.1       331.0       329.7    
        328.3       326.7       324.8       322.7       320.1    
   4    339.1       339.1       339.0       338.9       338.8       338.6       338.4       338.1       337.8       337.4    
        337.0       336.5       336.0       335.4       334.7       334.0       333.1       332.1       331.0       329.7    
        328.3       326.7       324.8       322.7       320.1    
   5    339.1       339.1       339.0       338.9       338.8       338.6       338.3       338.1       337.8       337.4    
        337.0       336.5       336.0       335.4       334.7       333.9       333.1       332.1       331.0       329.7    
        328.3       326.7       324.8       322.7       320.1    
   6    339.1       339.1       339.0       338.9       338.8       338.6       338.3       338.1       337.8       337.4    
        337.0       336.5       336.0       335.4       334.7       333.9       333.1       332.1       331.0       329.7    
        328.3       326.7       324.8       322.7       320.1    
   7    339.1       339.1       339.0       338.9       338.7       338.6       338.3       338.1       337.8       337.4    
        337.0       336.5       336.0       335.4       334.7       333.9       333.1       332.1       331.0       329.7    
        328.3       326.7       324.8       322.7       320.1    
   8    339.1       339.1       339.0       338.9       338.7       338.6       338.3       338.1       337.7       337.4    
        337.0       336.5       336.0       335.4       334.7       333.9       333.1       332.1       331.0       329.7    
        328.3       326.7       324.8       322.7       320.1    
   9    339.1       339.1       339.0       338.9       338.7       338.5       338.3       338.0       337.7       337.4    
        337.0       336.5       335.9       335.3       334.7       333.9       333.0       332.1       331.0       329.7    
        328.3       326.7       324.8       322.7       320.1    
  10    339.1       339.1       339.0       338.9       338.7       338.5       338.3       338.0       337.7       337.4    
        336.9       336.5       335.9       335.3       334.7       333.9       333.0       332.1       331.0       329.7    
        328.3       326.7       324.8       322.7       320.1    
  11    339.1       339.1       339.0       338.9       338.7       338.5       338.3       338.0       337.7       337.3    
        336.9       336.5       335.9       335.3       334.6       333.9       333.0       332.1       331.0       329.7    
        328.3       326.7       324.8       322.7       320.1    
  12    339.1       339.1       339.0       338.9       338.7       338.5       338.3       338.0       337.7       337.3    
        336.9       336.4       335.9       335.3       334.6       333.9       333.0       332.0       331.0       329.7    
        328.3       326.7       324.8       322.7       320.1    
  13    339.1       339.1       339.0       338.9       338.7       338.5       338.3       338.0       337.7       337.3    
        336.9       336.4       335.9       335.3       334.6       333.9       333.0       332.0       330.9       329.7    
        328.3       326.7       324.8       322.7       320.1    
  14    339.1       339.1       339.0       338.9       338.7       338.5       338.3       338.0       337.7       337.3    
        336.9       336.4       335.9       335.3       334.6       333.9       333.0       332.0       331.0       329.7    
        328.3       326.7       324.8       322.7       320.1    
  15    339.1       339.1       339.0       338.9       338.7       338.5       338.3       338.0       337.7       337.3    
        336.9       336.5       335.9       335.3       334.6       333.9       333.0       332.1       331.0       329.7    
        328.3       326.7       324.8       322.7       320.1    
  16    339.1       339.1       339.0       338.9       338.7       338.5       338.3       338.0       337.7       337.4    
        336.9       336.5       335.9       335.3       334.7       333.9       333.0       332.1       331.0       329.7    
        328.3       326.7       324.8       322.7       320.1    
  17    339.1       339.1       339.0       338.9       338.7       338.5       338.3       338.0       337.7       337.4    
        337.0       336.5       335.9       335.3       334.7       333.9       333.0       332.1       331.0       329.7    
        328.3       326.7       324.8       322.7       320.1    
  18    339.1       339.1       339.0       338.9       338.7       338.6       338.3       338.1       337.7       337.4    
        337.0       336.5       336.0       335.4       334.7       333.9       333.1       332.1       331.0       329.7    
        328.3       326.7       324.8       322.7       320.1    
  19    339.1       339.1       339.0       338.9       338.7       338.6       338.3       338.1       337.8       337.4    
        337.0       336.5       336.0       335.4       334.7       333.9       333.1       332.1       331.0       329.7    
        328.3       326.7       324.8       322.7       320.1    
  20    339.1       339.1       339.0       338.9       338.8       338.6       338.3       338.1       337.8       337.4    
        337.0       336.5       336.0       335.4       334.7       333.9       333.1       332.1       331.0       329.7    
        328.3       326.7       324.8       322.7       320.1    
  21    339.1       339.1       339.0       338.9       338.8       338.6       338.3       338.1       337.8       337.4    
        337.0       336.5       336.0       335.4       334.7       333.9       333.1       332.1       331.0       329.7    
        328.3       326.7       324.8       322.7       320.1    
  22    339.1       339.1       339.0       338.9       338.8       338.6       338.4       338.1       337.8       337.4    
        337.0       336.5       336.0       335.4       334.7       334.0       333.1       332.1       331.0       329.7    
        328.3       326.7       324.8       322.7       320.1    
  23    339.1       339.1       339.0       338.9       338.8       338.6       338.4       338.1       337.8       337.4    
        337.0       336.5       336.0       335.4       334.7       334.0       333.1       332.1       331.0       329.7    
        328.3       326.7       324.8       322.7       320.1    
  24    339.1       339.1       339.0       338.9       338.8       338.6       338.4       338.1       337.8       337.4    
        337.0       336.5       336.0       335.4       334.7       334.0       333.1       332.1       331.0       329.7    
        328.3       326.7       324.8       322.7       320.1    
  25    339.1       339.1       339.0       338.9       338.8       338.6       338.4       338.1       337.8       337.4    
        337.0       336.6       336.0       335.4       334.7       334.0       333.1       332.1       331.0       329.7    
        328.3       326.7       324.8       322.7       320.1    
1
              HEAD IN LAYER   2 AT END OF TIME STEP   1 IN STRESS PERIOD    3
  ---------------------------------------------------------------------------

            1           2           3           4           5           6           7           8           9          10
           11          12          13          14          15          16          17          18          19          20
           21          22          23          24          25
 ........................................................................................................................
   1    339.1       339.1       339.0       338.9       338.7       338.6       338.3       338.1       337.8       337.4    
        337.0       336.5       336.0       335.4       334.7       333.9       333.1       332.1       331.0       329.7    
        328.3       326.7       324.8       322.7       320.3    
   2    339.1       339.1       339.0       338.9       338.7       338.6       338.3       338.1       337.8       337.4    
        337.0       336.5       336.0       335.4       334.7       333.9       333.1       332.1       331.0       329.7    
        328.3       326.7       324.8       322.7       320.3    
   3    339.1       339.1       339.0       338.9       338.7       338.6       338.3       338.1       337.8       337.4    
        337.0       336.5       336.0       335.4       334.7       333.9       333.1       332.1       331.0       329.7    
        328.3       326.7       324.8       322.7       320.3    
   4    339.1       339.1       339.0       338.9       338.7       338.6       338.3       338.1       337.8       337.4    
        337.0       336.5       336.0       335.4       334.7       333.9       333.1       332.1       331.0       329.7    
        328.3       326.7       324.8       322.7       320.3    
   5    339.1       339.1       339.0       338.9       338.7       338.5       338.3       338.1       337.7       337.4    
        337.0       336.5       336.0       335.4       334.7       333.9       333.1       332.1       331.0       329.7    
        328.3       326.7       324.8       322.7       320.3    
   6    339.1       339.1       339.0       338.9       338.7       338.5       338.3       338.1       337.7       337.4    
        337.0       336.5       336.0       335.4       334.7       333.9       333.1       332.1       331.0       329.7    
        328.3       326.7       324.8       322.7       320.3    
   7    339.1       339.0       339.0       338.9       338.7       338.5       338.3       338.0       337.7       337.4    
        337.0       336.5       336.0       335.4       334.7       333.9       333.0       332.1       331.0       329.7    
        328.3       326.7       324.8       322.7       320.3    
   8    339.1       339.0       339.0       338.9       338.7       338.5       338.3       338.0       337.7       337.4    
        336.9       336.5       335.9       335.3       334.7       333.9       333.0       332.1       331.0       329.7    
        328.3       326.7       324.8       322.7       320.3    
   9    339.1       339.0       339.0       338.9       338.7       338.5       338.3       338.0       337.7       337.3    
        336.9       336.5       335.9       335.3       334.6       333.9       333.0       332.1       331.0       329.7    
        328.3       326.7       324.8       322.7       320.3    
  10    339.1       339.0       339.0       338.9       338.7       338.5       338.3       338.0       337.7       337.3    
        336.9       336.4       335.9       335.3       334.6       333.9       333.0       332.0       330.9       329.7    
        328.3       326.7       324.8       322.7       320.3    
  11    339.1       339.0       339.0       338.8       338.7       338.5       338.3       338.0       337.7       337.3    
        336.9       336.4       335.9       335.3       334.6       333.9       333.0       332.0       330.9       329.7    
        328.3       326.7       324.8       322.7       320.3    
  12    339.1       339.0       339.0       338.8       338.7       338.5       338.3       338.0       337.7       337.3    
        336.9       336.4       335.9       335.3       334.6       333.9       333.0       332.0       330.9       329.7    
        328.3       326.7       324.8       322.7       320.3    
  13    339.1       339.0       339.0       338.8       338.7       338.5       338.3       338.0       337.7       337.3    
        336.9       336.4       335.9       335.3       334.6       333.9       333.0       332.0       330.9       329.7    
        328.3       326.7       324.8       322.7       320.3    
  14    339.1       339.0       339.0       338.8       338.7       338.5       338.3       338.0       337.7       337.3    
        336.9       336.4       335.9       335.3       334.6       333.9       333.0       332.0       330.9       329.7    
        328.3       326.7       324.8       322.7       320.3    
  15    339.1       339.0       339.0       338.8       338.7       338.5       338.3       338.0       337.7       337.3    
        336.9       336.4       335.9       335.3       334.6       333.9       333.0       332.0       330.9       329.7    
        328.3       326.7       324.8       322.7       320.3    
  16    339.1       339.0       339.0       338.9       338.7       338.5       338.3       338.0       337.7       337.3    
        336.9       336.4       335.9       335.3       334.6       333.9       333.0       332.0       330.9       329.7    
        328.3       326.7       324.8       322.7       320.3    
  17    339.1       339.0       339.0       338.9       338.7       338.5       338.3       338.0       337.7       337.3    
        336.9       336.5       335.9       335.3       334.6       333.9       333.0       332.1       331.0       329.7    
        328.3       326.7       324.8       322.7       320.3    
  18    339.1       339.0       339.0       338.9       338.7       338.5       338.3       338.0       337.7       337.4    
        336.9       336.5       335.9       335.3       334.7       333.9       333.0       332.1       331.0       329.7    
        328.3       326.7       324.8       322.7       320.3    
  19    339.1       339.0       339.0       338.9       338.7       338.5       338.3       338.0       337.7       337.4    
        337.0       336.5       336.0       335.4       334.7       333.9       333.0       332.1       331.0       329.7    
        328.3       326.7       324.8       322.7       320.3    
  20    339.1       339.1       339.0       338.9       338.7       338.5       338.3       338.1       337.7       337.4    
        337.0       336.5       336.0       335.4       334.7       333.9       333.1       332.1       331.0       329.7    
        328.3       326.7       324.8       322.7       320.3    
  21    339.1       339.1       339.0       338.9       338.7       338.5       338.3       338.1       337.7       337.4    
        337.0       336.5       336.0       335.4       334.7       333.9       333.1       332.1       331.0       329.7    
        328.3       326.7       324.8       322.7       320.3    
  22    339.1       339.1       339.0       338.9       338.7       338.6       338.3       338.1       337.8       337.4    
        337.0       336.5       336.0       335.4       334.7       333.9       333.1       332.1       331.0       329.7    
        328.3       326.7       324.8       322.7       320.3    
  23    339.1       339.1       339.0       338.9       338.7       338.6       338.3       338.1       337.8       337.4    
        337.0       336.5       336.0       335.4       334.7       333.9       333.1       332.1       331.0       329.7    
        328.3       326.7       324.8       322.7       320.3    
  24    339.1       339.1       339.0       338.9       338.7       338.6       338.3       338.1       337.8       337.4    
        337.0       336.5       336.0       335.4       334.7       333.9       333.1       332.1       331.0       329.7    
        328.3       326.7       324.8       322.7       320.3    
  25    339.1       339.1       339.0       338.9       338.7       338.6       338.3       338.1       337.8       337.4    
        337.0       336.5       336.0       335.4       334.7       333.9       333.1       332.1       331.0       329.7    
        328.3       326.7       324.8       322.7       320.3    
1
              HEAD IN LAYER   3 AT END OF TIME STEP   1 IN STRESS PERIOD    3
  ---------------------------------------------------------------------------

            1           2           3           4           5           6           7           8           9          10
           11          12          13          14          15          16          17          18          19          20
           21          22          23          24          25
 ........................................................................................................................
   1    335.4       335.4       335.4       335.3       335.2       335.1       334.9       334.8       334.6       334.4    
        334.1       333.8       333.5       333.2       332.8       332.4       331.9       331.3       330.7       330.1    
        329.3       328.5       327.5       326.4       325.3    
   2    335.4       335.4       335.4       335.3       335.2       335.1       334.9       334.8       334.6       334.4    
        334.1       333.8       333.5       333.2       332.8       332.3       331.9       331.3       330.7       330.1    
        329.3       328.5       327.5       326.4       325.2    
   3    335.4       335.4       335.4       335.3       335.2       335.1       334.9       334.8       334.6       334.3    
        334.1       333.8       333.5       333.2       332.8       332.3       331.9       331.3       330.7       330.1    
        329.3       328.5       327.5       326.4       325.2    
   4    335.4       335.4       335.4       335.3       335.2       335.1       334.9       334.7       334.6       334.3    
        334.1       333.8       333.5       333.1       332.7       332.3       331.8       331.3       330.7       330.1    
        329.3       328.5       327.5       326.4       325.2    
   5    335.4       335.4       335.3       335.3       335.2       335.1       334.9       334.7       334.5       334.3    
        334.1       333.8       333.5       333.1       332.7       332.3       331.8       331.3       330.7       330.0    
        329.3       328.5       327.5       326.4       325.2    
   6    335.4       335.4       335.3       335.3       335.2       335.0       334.9       334.7       334.5       334.3    
        334.0       333.7       333.4       333.1       332.7       332.3       331.8       331.3       330.7       330.0    
        329.3       328.4       327.5       326.4       325.2    
   7    335.4       335.4       335.3       335.3       335.2       335.0       334.9       334.7       334.5       334.2    
        334.0       333.7       333.4       333.0       332.7       332.2       331.8       331.3       330.7       330.0    
        329.3       328.4       327.5       326.4       325.2    
   8    335.4       335.4       335.3       335.2       335.1       335.0       334.8       334.7       334.5       334.2    
        333.9       333.6       333.3       333.0       332.6       332.2       331.7       331.2       330.7       330.0    
        329.3       328.4       327.5       326.4       325.2    
   9    335.4       335.4       335.3       335.2       335.1       335.0       334.8       334.6       334.4       334.2    
        333.9       333.6       333.3       332.9       332.6       332.2       331.7       331.2       330.6       330.0    
        329.2       328.4       327.5       326.4       325.2    
  10    335.4       335.4       335.3       335.2       335.1       335.0       334.8       334.6       334.4       334.1    
        333.8       333.5       333.2       332.8       332.5       332.1       331.7       331.2       330.6       330.0    
        329.2       328.4       327.5       326.4       325.2    
  11    335.4       335.3       335.3       335.2       335.1       335.0       334.8       334.6       334.3       334.1    
        333.8       333.4       333.0       332.7       332.4       332.1       331.6       331.2       330.6       330.0    
        329.2       328.4       327.5       326.4       325.2    
  12    335.4       335.3       335.3       335.2       335.1       335.0       334.8       334.6       334.3       334.0    
        333.7       333.3       332.8       332.6       332.4       332.0       331.6       331.1       330.6       329.9    
        329.2       328.4       327.5       326.4       325.2    
  13    335.4       335.3       335.3       335.2       335.1       335.0       334.8       334.6       334.3       334.0    
        333.6       333.1       332.3       332.5       332.3       332.0       331.6       331.1       330.6       329.9    
        329.2       328.4       327.5       326.4       325.2    
  14    335.4       335.3       335.3       335.2       335.1       335.0       334.8       334.6       334.3       334.0    
        333.7       333.3       332.8       332.6       332.4       332.0       331.6       331.1       330.6       329.9    
        329.2       328.4       327.5       326.4       325.2    
  15    335.4       335.3       335.3       335.2       335.1       335.0       334.8       334.6       334.3       334.1    
        333.8       333.4       333.0       332.7       332.4       332.1       331.6       331.2       330.6       330.0    
        329.2       328.4       327.5       326.4       325.2    
  16    335.4       335.4       335.3       335.2       335.1       335.0       334.8       334.6       334.4       334.1    
        333.8       333.5       333.2       332.8       332.5       332.1       331.7       331.2       330.6       330.0    
        329.2       328.4       327.5       326.4       325.2    
  17    335.4       335.4       335.3       335.2       335.1       335.0       334.8       334.6       334.4       334.2    
        333.9       333.6       333.3       332.9       332.6       332.2       331.7       331.2       330.6       330.0    
        329.2       328.4       327.5       326.4       325.2    
  18    335.4       335.4       335.3       335.2       335.1       335.0       334.8       334.7       334.5       334.2    
        333.9       333.6       333.3       333.0       332.6       332.2       331.7       331.2       330.7       330.0    
        329.3       328.4       327.5       326.4       325.2    
  19    335.4       335.4       335.3       335.3       335.2       335.0       334.9       334.7       334.5       334.2    
        334.0       333.7       333.4       333.0       332.7       332.2       331.8       331.3       330.7       330.0    
        329.3       328.4       327.5       326.4       325.2    
  20    335.4       335.4       335.3       335.3       335.2       335.0       334.9       334.7       334.5       334.3    
        334.0       333.7       333.4       333.1       332.7       332.3       331.8       331.3       330.7       330.0    
        329.3       328.4       327.5       326.4       325.2    
  21    335.4       335.4       335.3       335.3       335.2       335.1       334.9       334.7       334.5       334.3    
        334.1       333.8       333.5       333.1       332.7       332.3       331.8       331.3       330.7       330.0    
        329.3       328.5       327.5       326.4       325.2    
  22    335.4       335.4       335.4       335.3       335.2       335.1       334.9       334.7       334.6       334.3    
        334.1       333.8       333.5       333.1       332.7       332.3       331.8       331.3       330.7       330.1    
        329.3       328.5       327.5       326.4       325.2    
  23    335.4       335.4       335.4       335.3       335.2       335.1       334.9       334.8       334.6       334.3    
        334.1       333.8       333.5       333.2       332.8       332.3       331.9       331.3       330.7       330.1    
        329.3       328.5       327.5       326.4       325.2    
  24    335.4       335.4       335.4       335.3       335.2       335.1       334.9       334.8       334.6       334.4    
        334.1       333.8       333.5       333.2       332.8       332.3       331.9       331.3       330.7       330.1    
        329.3       328.5       327.5       326.4       325.2    
  25    335.4       335.4       335.4       335.3       335.2       335.1       334.9       334.8       334.6       334.4    
        334.1       333.8       333.5       333.2       332.8       332.4       331.9       331.3       330.7       330.1    
        329.3       328.5       327.5       326.4       325.3    
1
              HEAD IN LAYER   4 AT END OF TIME STEP   1 IN STRESS PERIOD    3
  ---------------------------------------------------------------------------

            1           2           3           4           5           6           7           8           9          10
           11          12          13          14          15          16          17          18          19          20
           21          22          23          24          25
 ........................................................................................................................
   1    331.8       331.8       331.7       331.7       331.7       331.6       331.5       331.5       331.4       331.3    
        331.2       331.1       331.0       330.9       330.8       330.8       330.7       330.6       330.5       330.4    
        330.3       330.3       330.2       330.2       330.2    
   2    331.8       331.8       331.7       331.7       331.7       331.6       331.5       331.5       331.4       331.3    
        331.2       331.1       331.0       330.9       330.8       330.7       330.7       330.6       330.5       330.4    
        330.3       330.3       330.2       330.2       330.1    
   3    331.8       331.8       331.7       331.7       331.6       331.6       331.5       331.5       331.4       331.3    
        331.2       331.1       331.0       330.9       330.8       330.7       330.6       330.6       330.5       330.4    
        330.3       330.3       330.2       330.2       330.1    
   4    331.8       331.7       331.7       331.7       331.6       331.6       331.5       331.4       331.3       331.3    
        331.2       331.1       331.0       330.9       330.8       330.7       330.6       330.5       330.5       330.4    
        330.3       330.3       330.2       330.2       330.1    
   5    331.8       331.7       331.7       331.7       331.6       331.6       331.5       331.4       331.3       331.2    
        331.1       331.0       330.9       330.8       330.8       330.7       330.6       330.5       330.4       330.4    
        330.3       330.2       330.2       330.1       330.1    
   6    331.7       331.7       331.7       331.7       331.6       331.5       331.5       331.4       331.3       331.2    
        331.1       331.0       330.9       330.8       330.7       330.6       330.6       330.5       330.4       330.3    
        330.3       330.2       330.2       330.1       330.1    
   7    331.7       331.7       331.7       331.6       331.6       331.5       331.4       331.3       331.2       331.1    
        331.0       330.9       330.8       330.7       330.6       330.6       330.5       330.4       330.4       330.3    
        330.3       330.2       330.2       330.1       330.1    
   8    331.7       331.7       331.7       331.6       331.6       331.5       331.4       331.3       331.2       331.1    
        330.9       330.8       330.7       330.6       330.6       330.5       330.5       330.4       330.3       330.3    
        330.2       330.2       330.1       330.1       330.1    
   9    331.7       331.7       331.7       331.6       331.5       331.5       331.4       331.2       331.1       331.0    
        330.8       330.7       330.6       330.5       330.5       330.4       330.4       330.4       330.3       330.3    
        330.2       330.2       330.1       330.1       330.1    
  10    331.7       331.7       331.6       331.6       331.5       331.4       331.3       331.2       331.1       330.9    
        330.7       330.6       330.4       330.4       330.4       330.3       330.3       330.3       330.3       330.2    
        330.2       330.2       330.1       330.1       330.1    
  11    331.7       331.7       331.6       331.6       331.5       331.4       331.3       331.2       331.0       330.8    
        330.6       330.4       330.2       330.2       330.2       330.3       330.3       330.3       330.2       330.2    
        330.2       330.1       330.1       330.1       330.1    
  12    331.7       331.7       331.6       331.6       331.5       331.4       331.3       331.1       331.0       330.7    
        330.5       330.1       329.8       329.9       330.1       330.2       330.2       330.2       330.2       330.2    
        330.2       330.1       330.1       330.1       330.1    
  13    331.7       331.7       331.6       331.6       331.5       331.4       331.3       331.1       330.9       330.7    
        330.4       329.8       328.7       329.7       330.0       330.1       330.2       330.2       330.2       330.2    
        330.2       330.1       330.1       330.1       330.1    
  14    331.7       331.7       331.6       331.6       331.5       331.4       331.3       331.1       331.0       330.7    
        330.5       330.1       329.8       329.9       330.1       330.2       330.2       330.2       330.2       330.2    
        330.2       330.1       330.1       330.1       330.1    
  15    331.7       331.7       331.6       331.6       331.5       331.4       331.3       331.2       331.0       330.8    
        330.6       330.4       330.2       330.2       330.2       330.3       330.3       330.3       330.2       330.2    
        330.2       330.1       330.1       330.1       330.1    
  16    331.7       331.7       331.6       331.6       331.5       331.4       331.3       331.2       331.1       330.9    
        330.7       330.6       330.4       330.4       330.4       330.3       330.3       330.3       330.3       330.2    
        330.2       330.2       330.1       330.1       330.1    
  17    331.7       331.7       331.7       331.6       331.5       331.5       331.4       331.2       331.1       331.0    
        330.8       330.7       330.6       330.5       330.5       330.4       330.4       330.4       330.3       330.3    
        330.2       330.2       330.1       330.1       330.1    
  18    331.7       331.7       331.7       331.6       331.6       331.5       331.4       331.3       331.2       331.1    
        330.9       330.8       330.7       330.6       330.6       330.5       330.5       330.4       330.3       330.3    
        330.2       330.2       330.1       330.1       330.1    
  19    331.7       331.7       331.7       331.6       331.6       331.5       331.4       331.3       331.2       331.1    
        331.0       330.9       330.8       330.7       330.6       330.6       330.5       330.4       330.4       330.3    
        330.3       330.2       330.2       330.1       330.1    
  20    331.7       331.7       331.7       331.7       331.6       331.5       331.5       331.4       331.3       331.2    
        331.1       331.0       330.9       330.8       330.7       330.6       330.6       330.5       330.4       330.3    
        330.3       330.2       330.2       330.1       330.1    
  21    331.8       331.7       331.7       331.7       331.6       331.6       331.5       331.4       331.3       331.2    
        331.1       331.0       330.9       330.8       330.8       330.7       330.6       330.5       330.4       330.4    
        330.3       330.2       330.2       330.1       330.1    
  22    331.8       331.7       331.7       331.7       331.6       331.6       331.5       331.4       331.3       331.3    
        331.2       331.1       331.0       330.9       330.8       330.7       330.6       330.5       330.5       330.4    
        330.3       330.3       330.2       330.2       330.1    
  23    331.8       331.8       331.7       331.7       331.6       331.6       331.5       331.5       331.4       331.3    
        331.2       331.1       331.0       330.9       330.8       330.7       330.6       330.6       330.5       330.4    
        330.3       330.3       330.2       330.2       330.1    
  24    331.8       331.8       331.7       331.7       331.7       331.6       331.5       331.5       331.4       331.3    
        331.2       331.1       331.0       330.9       330.8       330.7       330.7       330.6       330.5       330.4    
        330.3       330.3       330.2       330.2       330.1    
  25    331.8       331.8       331.7       331.7       331.7       331.6       331.5       331.5       331.4       331.3    
        331.2       331.1       331.0       330.9       330.8       330.8       330.7       330.6       330.5       330.4    
        330.3       330.3       330.2       330.2       330.2    
1
              HEAD IN LAYER   5 AT END OF TIME STEP   1 IN STRESS PERIOD    3
  ---------------------------------------------------------------------------

            1           2           3           4           5           6           7           8           9          10
           11          12          13          14          15          16          17          18          19          20
           21          22          23          24          25
 ........................................................................................................................
   1    331.8       331.8       331.7       331.7       331.7       331.6       331.5       331.5       331.4       331.3    
        331.2       331.1       331.0       330.9       330.8       330.8       330.7       330.6       330.5       330.4    
        330.3       330.3       330.2       330.2       330.2    
   2    331.8       331.8       331.7       331.7       331.6       331.6       331.5       331.5       331.4       331.3    
        331.2       331.1       331.0       330.9       330.8       330.7       330.7       330.6       330.5       330.4    
        330.3       330.3       330.2       330.2       330.2    
   3    331.8       331.7       331.7       331.7       331.6       331.6       331.5       331.4       331.4       331.3    
        331.2       331.1       331.0       330.9       330.8       330.7       330.6       330.6       330.5       330.4    
        330.3       330.3       330.2       330.2       330.2    
   4    331.8       331.7       331.7       331.7       331.6       331.6       331.5       331.4       331.3       331.3    
        331.2       331.1       331.0       330.9       330.8       330.7       330.6       330.5       330.5       330.4    
        330.3       330.3       330.2       330.2       330.1    
   5    331.7       331.7       331.7       331.7       331.6       331.6       331.5       331.4       331.3       331.2    
        331.1       331.0       330.9       330.8       330.8       330.7       330.6       330.5       330.4       330.4    
        330.3       330.2       330.2       330.2       330.1    
   6    331.7       331.7       331.7       331.6       331.6       331.5       331.5       331.4       331.3       331.2    
        331.1       331.0       330.9       330.8       330.7       330.6       330.6       330.5       330.4       330.3    
        330.3       330.2       330.2       330.1       330.1    
   7    331.7       331.7       331.7       331.6       331.6       331.5       331.4       331.3       331.2       331.1    
        331.0       330.9       330.8       330.7       330.6       330.6       330.5       330.4       330.4       330.3    
        330.3       330.2       330.2       330.1       330.1    
   8    331.7       331.7       331.7       331.6       331.6       331.5       331.4       331.3       331.2       331.1    
        330.9       330.8       330.7       330.6       330.6       330.5       330.5       330.4       330.3       330.3    
        330.2       330.2       330.1       330.1       330.1    
   9    331.7       331.7       331.6       331.6       331.5       331.4       331.4       331.2       331.1       331.0    
        330.8       330.7       330.6       330.5       330.5       330.4       330.4       330.4       330.3       330.3    
        330.2       330.2       330.1       330.1       330.1    
  10    331.7       331.7       331.6       331.6       331.5       331.4       331.3       331.2       331.1       330.9    
        330.7       330.6       330.4       330.4       330.4       330.3       330.3       330.3       330.3       330.2    
        330.2       330.2       330.1       330.1       330.1    
  11    331.7       331.7       331.6       331.6       331.5       331.4       331.3       331.2       331.0       330.8    
        330.6       330.4       330.2       330.2       330.2       330.3       330.3       330.3       330.2       330.2    
        330.2       330.1       330.1       330.1       330.1    
  12    331.7       331.7       331.6       331.6       331.5       331.4       331.3       331.1       330.9       330.7    
        330.5       330.1       329.8       329.9       330.1       330.2       330.2       330.2       330.2       330.2    
        330.2       330.1       330.1       330.1       330.1    
  13    331.7       331.6       331.6       331.6       331.5       331.4       331.3       331.1       330.9       330.7    
        330.4       329.9       329.0       329.7       330.0       330.1       330.2       330.2       330.2       330.2    
        330.2       330.1       330.1       330.1       330.1    
  14    331.7       331.7       331.6       331.6       331.5       331.4       331.3       331.1       330.9       330.7    
        330.5       330.1       329.8       329.9       330.1       330.2       330.2       330.2       330.2       330.2    
        330.2       330.1       330.1       330.1       330.1    
  15    331.7       331.7       331.6       331.6       331.5       331.4       331.3       331.2       331.0       330.8    
        330.6       330.4       330.2       330.2       330.2       330.3       330.3       330.3       330.2       330.2    
        330.2       330.1       330.1       330.1       330.1    
  16    331.7       331.7       331.6       331.6       331.5       331.4       331.3       331.2       331.1       330.9    
        330.7       330.6       330.4       330.4       330.4       330.3       330.3       330.3       330.3       330.2    
        330.2       330.2       330.1       330.1       330.1    
  17    331.7       331.7       331.6       331.6       331.5       331.4       331.4       331.2       331.1       331.0    
        330.8       330.7       330.6       330.5       330.5       330.4       330.4       330.4       330.3       330.3    
        330.2       330.2       330.1       330.1       330.1    
  18    331.7       331.7       331.7       331.6       331.6       331.5       331.4       331.3       331.2       331.1    
        330.9       330.8       330.7       330.6       330.6       330.5       330.5       330.4       330.3       330.3    
        330.2       330.2       330.1       330.1       330.1    
  19    331.7       331.7       331.7       331.6       331.6       331.5       331.4       331.3       331.2       331.1    
        331.0       330.9       330.8       330.7       330.6       330.6       330.5       330.4       330.4       330.3    
        330.3       330.2       330.2       330.1       330.1    
  20    331.7       331.7       331.7       331.6       331.6       331.5       331.5       331.4       331.3       331.2    
        331.1       331.0       330.9       330.8       330.7       330.6       330.6       330.5       330.4       330.3    
        330.3       330.2       330.2       330.1       330.1    
  21    331.7       331.7       331.7       331.7       331.6       331.6       331.5       331.4       331.3       331.2    
        331.1       331.0       330.9       330.8       330.8       330.7       330.6       330.5       330.4       330.4    
        330.3       330.2       330.2       330.2       330.1    
  22    331.8       331.7       331.7       331.7       331.6       331.6       331.5       331.4       331.3       331.3    
        331.2       331.1       331.0       330.9       330.8       330.7       330.6       330.5       330.5       330.4    
        330.3       330.3       330.2       330.2       330.1    
  23    331.8       331.7       331.7       331.7       331.6       331.6       331.5       331.4       331.4       331.3    
        331.2       331.1       331.0       330.9       330.8       330.7       330.6       330.6       330.5       330.4    
        330.3       330.3       330.2       330.2       330.2    
  24    331.8       331.8       331.7       331.7       331.6       331.6       331.5       331.5       331.4       331.3    
        331.2       331.1       331.0       330.9       330.8       330.7       330.7       330.6       330.5       330.4    
        330.3       330.3       330.2       330.2       330.2    
  25    331.8       331.8       331.7       331.7       331.7       331.6       331.5       331.5       331.4       331.3    
        331.2       331.1       331.0       330.9       330.8       330.8       330.7       330.6       330.5       330.4    
        330.3       330.3       330.2       330.2       330.2    

 HEAD WILL BE SAVED ON UNIT   50 AT END OF TIME STEP    1, STRESS PERIOD    3
1
  VOLUMETRIC BUDGET FOR ENTIRE MODEL AT END OF TIME STEP    1, STRESS PERIOD   3
  ------------------------------------------------------------------------------

     CUMULATIVE VOLUMES      L**3       RATES FOR THIS TIME STEP      L**3/T
     ------------------                 ------------------------

           IN:                                      IN:
           ---                                      ---
             STORAGE =         307.2020               STORAGE =           0.0000
       CONSTANT HEAD =           0.0000         CONSTANT HEAD =           0.0000
       RIVER LEAKAGE =           0.0000         RIVER LEAKAGE =           0.0000
            RECHARGE =204999983104.0000              RECHARGE =      500000.0000
                MNW2 =           0.0000                  MNW2 =           0.0000

            TOTAL IN =204999983104.0000              TOTAL IN =      500000.0000

          OUT:                                     OUT:
          ----                                     ----
             STORAGE =         151.1989               STORAGE =           0.0000
       CONSTANT HEAD =           0.0000         CONSTANT HEAD =           0.0000
       RIVER LEAKAGE =143498641408.0000         RIVER LEAKAGE =      349999.5000
            RECHARGE =           0.0000              RECHARGE =           0.0000
                MNW2 = 61500002304.0000                  MNW2 =      150000.0000

           TOTAL OUT =204998639616.0000             TOTAL OUT =      499999.5000

            IN - OUT =     1343488.0000              IN - OUT =           0.5000

 PERCENT DISCREPANCY =           0.00     PERCENT DISCREPANCY =           0.00






         TIME SUMMARY AT END OF TIME STEP    1 IN STRESS PERIOD    3
                    SECONDS     MINUTES      HOURS       DAYS        YEARS
                    -----------------------------------------------------------
   TIME STEP LENGTH 1.72800E+10 2.88000E+08 4.80000E+06 2.00000E+05  547.57    
 STRESS PERIOD TIME 1.72800E+10 2.88000E+08 4.80000E+06 2.00000E+05  547.57    
         TOTAL TIME 3.54240E+10 5.90400E+08 9.84000E+06 4.10000E+05  1122.5    
1

 Run end date and time (yyyy/mm/dd hh:mm:ss): 2025/05/17  7:52:15
 Elapsed run time:  0.092 Seconds

