                                  MODFLOW-2005     
      U.S. GEOLOGICAL SURVEY MODULAR FINITE-DIFFERENCE GROUND-WATER FLOW MODEL
                            VERSION 1.12.00 2/3/2017

 LIST FILE: Chapman_model_mf.list
                         UNIT    2

 OPENING Chapman_model_mf.dis
 FILE TYPE:DIS   UNIT   11   STATUS:OLD    
 FORMAT:FORMATTED              ACCESS:SEQUENTIAL          

 OPENING Chapman_model_mf.bas
 FILE TYPE:BAS6   UNIT   13   STATUS:OLD    
 FORMAT:FORMATTED              ACCESS:SEQUENTIAL          

 OPENING Chapman_model_mf.lpf
 FILE TYPE:LPF   UNIT   15   STATUS:OLD    
 FORMAT:FORMATTED              ACCESS:SEQUENTIAL          

 OPENING Chapman_model_mf.wel
 FILE TYPE:WEL   UNIT   20   STATUS:OLD    
 FORMAT:FORMATTED              ACCESS:SEQUENTIAL          

 OPENING Chapman_model_mf.pcg
 FILE TYPE:PCG   UNIT   27   STATUS:OLD    
 FORMAT:FORMATTED              ACCESS:SEQUENTIAL          

 OPENING Chapman_model_mf.lmt6
 FILE TYPE:LMT6   UNIT   30   STATUS:OLD    
 FORMAT:FORMATTED              ACCESS:SEQUENTIAL          

 OPENING Chapman_model_mf.oc
 FILE TYPE:OC   UNIT   14   STATUS:OLD    
 FORMAT:FORMATTED              ACCESS:SEQUENTIAL          

 OPENING Chapman_model_mf.hds
 FILE TYPE:DATA(BINARY)   UNIT   51   STATUS:REPLACE
 FORMAT:BINARY                 ACCESS:SEQUENTIAL          

 BAS -- BASIC PACKAGE, VERSION 7, 5/2/2005 INPUT READ FROM UNIT   13
 
 MODFLOW was compiled using mixed precision
 Precision of REAL variables:           6
 Precision of DOUBLE PRECISION variables:          15

 DISCRETIZATION INPUT DATA READ FROM UNIT   11
 # DIS package for MODFLOW-2005 generated by Flopy 3.9.1
   40 LAYERS         1 ROWS       120 COLUMNS
    3 STRESS PERIOD(S) IN SIMULATION
 MODEL TIME UNIT IS DAYS
 MODEL LENGTH UNIT IS METERS
  Confining bed flag for each layer:
   0   0   0   0   0   0   0   0   0   0   0   0   0   0   0   0   0   0   0   0
   0   0   0   0   0   0   0   0   0   0   0   0   0   0   0   0   0   0   0   0

                     DELR =  1.000000E-02

                     DELC =  3.000000E-02

 TOP ELEVATION OF LAYER 1 =   0.00000    

   MODEL LAYER BOTTOM EL. = -1.000000E-02 FOR LAYER   1

   MODEL LAYER BOTTOM EL. = -2.000000E-02 FOR LAYER   2

   MODEL LAYER BOTTOM EL. = -3.000000E-02 FOR LAYER   3

   MODEL LAYER BOTTOM EL. = -4.000000E-02 FOR LAYER   4

   MODEL LAYER BOTTOM EL. = -5.000000E-02 FOR LAYER   5

   MODEL LAYER BOTTOM EL. = -6.000000E-02 FOR LAYER   6

   MODEL LAYER BOTTOM EL. = -7.000000E-02 FOR LAYER   7

   MODEL LAYER BOTTOM EL. = -8.000000E-02 FOR LAYER   8

   MODEL LAYER BOTTOM EL. = -9.000000E-02 FOR LAYER   9

   MODEL LAYER BOTTOM EL. = -0.100000     FOR LAYER  10

   MODEL LAYER BOTTOM EL. = -0.110000     FOR LAYER  11

   MODEL LAYER BOTTOM EL. = -0.120000     FOR LAYER  12

   MODEL LAYER BOTTOM EL. = -0.130000     FOR LAYER  13

   MODEL LAYER BOTTOM EL. = -0.140000     FOR LAYER  14

   MODEL LAYER BOTTOM EL. = -0.150000     FOR LAYER  15

   MODEL LAYER BOTTOM EL. = -0.160000     FOR LAYER  16

   MODEL LAYER BOTTOM EL. = -0.170000     FOR LAYER  17

   MODEL LAYER BOTTOM EL. = -0.180000     FOR LAYER  18

   MODEL LAYER BOTTOM EL. = -0.190000     FOR LAYER  19

   MODEL LAYER BOTTOM EL. = -0.200000     FOR LAYER  20

   MODEL LAYER BOTTOM EL. = -0.210000     FOR LAYER  21

   MODEL LAYER BOTTOM EL. = -0.220000     FOR LAYER  22

   MODEL LAYER BOTTOM EL. = -0.230000     FOR LAYER  23

   MODEL LAYER BOTTOM EL. = -0.240000     FOR LAYER  24

   MODEL LAYER BOTTOM EL. = -0.250000     FOR LAYER  25

   MODEL LAYER BOTTOM EL. = -0.260000     FOR LAYER  26

   MODEL LAYER BOTTOM EL. = -0.270000     FOR LAYER  27

   MODEL LAYER BOTTOM EL. = -0.280000     FOR LAYER  28

   MODEL LAYER BOTTOM EL. = -0.290000     FOR LAYER  29

   MODEL LAYER BOTTOM EL. = -0.300000     FOR LAYER  30

   MODEL LAYER BOTTOM EL. = -0.310000     FOR LAYER  31

   MODEL LAYER BOTTOM EL. = -0.320000     FOR LAYER  32

   MODEL LAYER BOTTOM EL. = -0.330000     FOR LAYER  33

   MODEL LAYER BOTTOM EL. = -0.340000     FOR LAYER  34

   MODEL LAYER BOTTOM EL. = -0.350000     FOR LAYER  35

   MODEL LAYER BOTTOM EL. = -0.360000     FOR LAYER  36

   MODEL LAYER BOTTOM EL. = -0.370000     FOR LAYER  37

   MODEL LAYER BOTTOM EL. = -0.380000     FOR LAYER  38

   MODEL LAYER BOTTOM EL. = -0.390000     FOR LAYER  39

   MODEL LAYER BOTTOM EL. = -0.400000     FOR LAYER  40


 STRESS PERIOD     LENGTH       TIME STEPS     MULTIPLIER FOR DELT    SS FLAG
 ----------------------------------------------------------------------------
        1         10.00000          1                    1.000         SS
        2         22.00000          1                    1.000         SS
        3         50.00000          1                    1.000         SS

 STEADY-STATE SIMULATION



 
 # BAS6 package for MODFLOW-2005 generated by Flopy 3.9.1                        
 THE FREE FORMAT OPTION HAS BEEN SELECTED



                     BOUNDARY ARRAY FOR LAYER   1
 READING ON UNIT   13 WITH FORMAT: (120I10)            



                     BOUNDARY ARRAY FOR LAYER   2
 READING ON UNIT   13 WITH FORMAT: (120I10)            



                     BOUNDARY ARRAY FOR LAYER   3
 READING ON UNIT   13 WITH FORMAT: (120I10)            



                     BOUNDARY ARRAY FOR LAYER   4
 READING ON UNIT   13 WITH FORMAT: (120I10)            



                     BOUNDARY ARRAY FOR LAYER   5
 READING ON UNIT   13 WITH FORMAT: (120I10)            



                     BOUNDARY ARRAY FOR LAYER   6
 READING ON UNIT   13 WITH FORMAT: (120I10)            



                     BOUNDARY ARRAY FOR LAYER   7
 READING ON UNIT   13 WITH FORMAT: (120I10)            



                     BOUNDARY ARRAY FOR LAYER   8
 READING ON UNIT   13 WITH FORMAT: (120I10)            



                     BOUNDARY ARRAY FOR LAYER   9
 READING ON UNIT   13 WITH FORMAT: (120I10)            



                     BOUNDARY ARRAY FOR LAYER  10
 READING ON UNIT   13 WITH FORMAT: (120I10)            



                     BOUNDARY ARRAY FOR LAYER  11
 READING ON UNIT   13 WITH FORMAT: (120I10)            



                     BOUNDARY ARRAY FOR LAYER  12
 READING ON UNIT   13 WITH FORMAT: (120I10)            



                     BOUNDARY ARRAY FOR LAYER  13
 READING ON UNIT   13 WITH FORMAT: (120I10)            



                     BOUNDARY ARRAY FOR LAYER  14
 READING ON UNIT   13 WITH FORMAT: (120I10)            



                     BOUNDARY ARRAY FOR LAYER  15
 READING ON UNIT   13 WITH FORMAT: (120I10)            



                     BOUNDARY ARRAY FOR LAYER  16
 READING ON UNIT   13 WITH FORMAT: (120I10)            



                     BOUNDARY ARRAY FOR LAYER  17
 READING ON UNIT   13 WITH FORMAT: (120I10)            



                     BOUNDARY ARRAY FOR LAYER  18
 READING ON UNIT   13 WITH FORMAT: (120I10)            



                     BOUNDARY ARRAY FOR LAYER  19
 READING ON UNIT   13 WITH FORMAT: (120I10)            



                     BOUNDARY ARRAY FOR LAYER  20
 READING ON UNIT   13 WITH FORMAT: (120I10)            



                     BOUNDARY ARRAY FOR LAYER  21
 READING ON UNIT   13 WITH FORMAT: (120I10)            



                     BOUNDARY ARRAY FOR LAYER  22
 READING ON UNIT   13 WITH FORMAT: (120I10)            



                     BOUNDARY ARRAY FOR LAYER  23
 READING ON UNIT   13 WITH FORMAT: (120I10)            



                     BOUNDARY ARRAY FOR LAYER  24
 READING ON UNIT   13 WITH FORMAT: (120I10)            



                     BOUNDARY ARRAY FOR LAYER  25
 READING ON UNIT   13 WITH FORMAT: (120I10)            



                     BOUNDARY ARRAY FOR LAYER  26
 READING ON UNIT   13 WITH FORMAT: (120I10)            



                     BOUNDARY ARRAY FOR LAYER  27
 READING ON UNIT   13 WITH FORMAT: (120I10)            



                     BOUNDARY ARRAY FOR LAYER  28
 READING ON UNIT   13 WITH FORMAT: (120I10)            



                     BOUNDARY ARRAY FOR LAYER  29
 READING ON UNIT   13 WITH FORMAT: (120I10)            



                     BOUNDARY ARRAY FOR LAYER  30
 READING ON UNIT   13 WITH FORMAT: (120I10)            



                     BOUNDARY ARRAY FOR LAYER  31
 READING ON UNIT   13 WITH FORMAT: (120I10)            



                     BOUNDARY ARRAY FOR LAYER  32
 READING ON UNIT   13 WITH FORMAT: (120I10)            



                     BOUNDARY ARRAY FOR LAYER  33
 READING ON UNIT   13 WITH FORMAT: (120I10)            



                     BOUNDARY ARRAY FOR LAYER  34
 READING ON UNIT   13 WITH FORMAT: (120I10)            



                     BOUNDARY ARRAY FOR LAYER  35
 READING ON UNIT   13 WITH FORMAT: (120I10)            



                     BOUNDARY ARRAY FOR LAYER  36
 READING ON UNIT   13 WITH FORMAT: (120I10)            



                     BOUNDARY ARRAY FOR LAYER  37
 READING ON UNIT   13 WITH FORMAT: (120I10)            



                     BOUNDARY ARRAY FOR LAYER  38
 READING ON UNIT   13 WITH FORMAT: (120I10)            



                     BOUNDARY ARRAY FOR LAYER  39
 READING ON UNIT   13 WITH FORMAT: (120I10)            



                     BOUNDARY ARRAY FOR LAYER  40
 READING ON UNIT   13 WITH FORMAT: (120I10)            

 AQUIFER HEAD WILL BE SET TO  -999.99     AT ALL NO-FLOW NODES (IBOUND=0).



                       INITIAL HEAD FOR LAYER   1
 READING ON UNIT   13 WITH FORMAT: (120E15.6)          



                       INITIAL HEAD FOR LAYER   2
 READING ON UNIT   13 WITH FORMAT: (120E15.6)          



                       INITIAL HEAD FOR LAYER   3
 READING ON UNIT   13 WITH FORMAT: (120E15.6)          



                       INITIAL HEAD FOR LAYER   4
 READING ON UNIT   13 WITH FORMAT: (120E15.6)          



                       INITIAL HEAD FOR LAYER   5
 READING ON UNIT   13 WITH FORMAT: (120E15.6)          



                       INITIAL HEAD FOR LAYER   6
 READING ON UNIT   13 WITH FORMAT: (120E15.6)          



                       INITIAL HEAD FOR LAYER   7
 READING ON UNIT   13 WITH FORMAT: (120E15.6)          



                       INITIAL HEAD FOR LAYER   8
 READING ON UNIT   13 WITH FORMAT: (120E15.6)          



                       INITIAL HEAD FOR LAYER   9
 READING ON UNIT   13 WITH FORMAT: (120E15.6)          



                       INITIAL HEAD FOR LAYER  10
 READING ON UNIT   13 WITH FORMAT: (120E15.6)          



                       INITIAL HEAD FOR LAYER  11
 READING ON UNIT   13 WITH FORMAT: (120E15.6)          



                       INITIAL HEAD FOR LAYER  12
 READING ON UNIT   13 WITH FORMAT: (120E15.6)          



                       INITIAL HEAD FOR LAYER  13
 READING ON UNIT   13 WITH FORMAT: (120E15.6)          



                       INITIAL HEAD FOR LAYER  14
 READING ON UNIT   13 WITH FORMAT: (120E15.6)          



                       INITIAL HEAD FOR LAYER  15
 READING ON UNIT   13 WITH FORMAT: (120E15.6)          



                       INITIAL HEAD FOR LAYER  16
 READING ON UNIT   13 WITH FORMAT: (120E15.6)          



                       INITIAL HEAD FOR LAYER  17
 READING ON UNIT   13 WITH FORMAT: (120E15.6)          



                       INITIAL HEAD FOR LAYER  18
 READING ON UNIT   13 WITH FORMAT: (120E15.6)          



                       INITIAL HEAD FOR LAYER  19
 READING ON UNIT   13 WITH FORMAT: (120E15.6)          



                       INITIAL HEAD FOR LAYER  20
 READING ON UNIT   13 WITH FORMAT: (120E15.6)          



                       INITIAL HEAD FOR LAYER  21
 READING ON UNIT   13 WITH FORMAT: (120E15.6)          



                       INITIAL HEAD FOR LAYER  22
 READING ON UNIT   13 WITH FORMAT: (120E15.6)          



                       INITIAL HEAD FOR LAYER  23
 READING ON UNIT   13 WITH FORMAT: (120E15.6)          



                       INITIAL HEAD FOR LAYER  24
 READING ON UNIT   13 WITH FORMAT: (120E15.6)          



                       INITIAL HEAD FOR LAYER  25
 READING ON UNIT   13 WITH FORMAT: (120E15.6)          



                       INITIAL HEAD FOR LAYER  26
 READING ON UNIT   13 WITH FORMAT: (120E15.6)          



                       INITIAL HEAD FOR LAYER  27
 READING ON UNIT   13 WITH FORMAT: (120E15.6)          



                       INITIAL HEAD FOR LAYER  28
 READING ON UNIT   13 WITH FORMAT: (120E15.6)          



                       INITIAL HEAD FOR LAYER  29
 READING ON UNIT   13 WITH FORMAT: (120E15.6)          



                       INITIAL HEAD FOR LAYER  30
 READING ON UNIT   13 WITH FORMAT: (120E15.6)          



                       INITIAL HEAD FOR LAYER  31
 READING ON UNIT   13 WITH FORMAT: (120E15.6)          



                       INITIAL HEAD FOR LAYER  32
 READING ON UNIT   13 WITH FORMAT: (120E15.6)          



                       INITIAL HEAD FOR LAYER  33
 READING ON UNIT   13 WITH FORMAT: (120E15.6)          



                       INITIAL HEAD FOR LAYER  34
 READING ON UNIT   13 WITH FORMAT: (120E15.6)          



                       INITIAL HEAD FOR LAYER  35
 READING ON UNIT   13 WITH FORMAT: (120E15.6)          



                       INITIAL HEAD FOR LAYER  36
 READING ON UNIT   13 WITH FORMAT: (120E15.6)          



                       INITIAL HEAD FOR LAYER  37
 READING ON UNIT   13 WITH FORMAT: (120E15.6)          



                       INITIAL HEAD FOR LAYER  38
 READING ON UNIT   13 WITH FORMAT: (120E15.6)          



                       INITIAL HEAD FOR LAYER  39
 READING ON UNIT   13 WITH FORMAT: (120E15.6)          



                       INITIAL HEAD FOR LAYER  40
 READING ON UNIT   13 WITH FORMAT: (120E15.6)          
 # OC package for MODFLOW-2005 generated by Flopy 3.9.1

 OUTPUT CONTROL IS SPECIFIED ONLY AT TIME STEPS FOR WHICH OUTPUT IS DESIRED
 COMPACT CELL-BY-CELL BUDGET FILES WILL BE WRITTEN
 AUXILIARY DATA WILL BE SAVED IN CELL-BY-CELL BUDGET FILES
 HEAD PRINT FORMAT CODE IS   0    DRAWDOWN PRINT FORMAT CODE IS   0
 HEADS WILL BE SAVED ON UNIT   51    DRAWDOWNS WILL BE SAVED ON UNIT    0

 LPF -- LAYER-PROPERTY FLOW PACKAGE, VERSION 7, 5/2/2005
         INPUT READ FROM UNIT   15
 # LPF package for MODFLOW-2005 generated by Flopy 3.9.1
 HEAD AT CELLS THAT CONVERT TO DRY= -1.00000E+30
 No named parameters

   LAYER FLAGS:
 LAYER       LAYTYP        LAYAVG         CHANI        LAYVKA        LAYWET
 ---------------------------------------------------------------------------
    1             0             0     1.000E+00             0             0
    2             0             0     1.000E+00             0             0
    3             0             0     1.000E+00             0             0
    4             0             0     1.000E+00             0             0
    5             0             0     1.000E+00             0             0
    6             0             0     1.000E+00             0             0
    7             0             0     1.000E+00             0             0
    8             0             0     1.000E+00             0             0
    9             0             0     1.000E+00             0             0
   10             0             0     1.000E+00             0             0
   11             0             0     1.000E+00             0             0
   12             0             0     1.000E+00             0             0
   13             0             0     1.000E+00             0             0
   14             0             0     1.000E+00             0             0
   15             0             0     1.000E+00             0             0
   16             0             0     1.000E+00             0             0
   17             0             0     1.000E+00             0             0
   18             0             0     1.000E+00             0             0
   19             0             0     1.000E+00             0             0
   20             0             0     1.000E+00             0             0
   21             0             0     1.000E+00             0             0
   22             0             0     1.000E+00             0             0
   23             0             0     1.000E+00             0             0
   24             0             0     1.000E+00             0             0
   25             0             0     1.000E+00             0             0
   26             0             0     1.000E+00             0             0
   27             0             0     1.000E+00             0             0
   28             0             0     1.000E+00             0             0
   29             0             0     1.000E+00             0             0
   30             0             0     1.000E+00             0             0
   31             0             0     1.000E+00             0             0
   32             0             0     1.000E+00             0             0
   33             0             0     1.000E+00             0             0
   34             0             0     1.000E+00             0             0
   35             0             0     1.000E+00             0             0
   36             0             0     1.000E+00             0             0
   37             0             0     1.000E+00             0             0
   38             0             0     1.000E+00             0             0
   39             0             0     1.000E+00             0             0
   40             0             0     1.000E+00             0             0

   INTERPRETATION OF LAYER FLAGS:
                        INTERBLOCK     HORIZONTAL    DATA IN
         LAYER TYPE   TRANSMISSIVITY   ANISOTROPY   ARRAY VKA   WETTABILITY
 LAYER      (LAYTYP)      (LAYAVG)       (CHANI)      (LAYVKA)      (LAYWET)
 ---------------------------------------------------------------------------
    1      CONFINED      HARMONIC     1.000E+00    VERTICAL K  NON-WETTABLE
    2      CONFINED      HARMONIC     1.000E+00    VERTICAL K  NON-WETTABLE
    3      CONFINED      HARMONIC     1.000E+00    VERTICAL K  NON-WETTABLE
    4      CONFINED      HARMONIC     1.000E+00    VERTICAL K  NON-WETTABLE
    5      CONFINED      HARMONIC     1.000E+00    VERTICAL K  NON-WETTABLE
    6      CONFINED      HARMONIC     1.000E+00    VERTICAL K  NON-WETTABLE
    7      CONFINED      HARMONIC     1.000E+00    VERTICAL K  NON-WETTABLE
    8      CONFINED      HARMONIC     1.000E+00    VERTICAL K  NON-WETTABLE
    9      CONFINED      HARMONIC     1.000E+00    VERTICAL K  NON-WETTABLE
   10      CONFINED      HARMONIC     1.000E+00    VERTICAL K  NON-WETTABLE
   11      CONFINED      HARMONIC     1.000E+00    VERTICAL K  NON-WETTABLE
   12      CONFINED      HARMONIC     1.000E+00    VERTICAL K  NON-WETTABLE
   13      CONFINED      HARMONIC     1.000E+00    VERTICAL K  NON-WETTABLE
   14      CONFINED      HARMONIC     1.000E+00    VERTICAL K  NON-WETTABLE
   15      CONFINED      HARMONIC     1.000E+00    VERTICAL K  NON-WETTABLE
   16      CONFINED      HARMONIC     1.000E+00    VERTICAL K  NON-WETTABLE
   17      CONFINED      HARMONIC     1.000E+00    VERTICAL K  NON-WETTABLE
   18      CONFINED      HARMONIC     1.000E+00    VERTICAL K  NON-WETTABLE
   19      CONFINED      HARMONIC     1.000E+00    VERTICAL K  NON-WETTABLE
   20      CONFINED      HARMONIC     1.000E+00    VERTICAL K  NON-WETTABLE
   21      CONFINED      HARMONIC     1.000E+00    VERTICAL K  NON-WETTABLE
   22      CONFINED      HARMONIC     1.000E+00    VERTICAL K  NON-WETTABLE
   23      CONFINED      HARMONIC     1.000E+00    VERTICAL K  NON-WETTABLE
   24      CONFINED      HARMONIC     1.000E+00    VERTICAL K  NON-WETTABLE
   25      CONFINED      HARMONIC     1.000E+00    VERTICAL K  NON-WETTABLE
   26      CONFINED      HARMONIC     1.000E+00    VERTICAL K  NON-WETTABLE
   27      CONFINED      HARMONIC     1.000E+00    VERTICAL K  NON-WETTABLE
   28      CONFINED      HARMONIC     1.000E+00    VERTICAL K  NON-WETTABLE
   29      CONFINED      HARMONIC     1.000E+00    VERTICAL K  NON-WETTABLE
   30      CONFINED      HARMONIC     1.000E+00    VERTICAL K  NON-WETTABLE
   31      CONFINED      HARMONIC     1.000E+00    VERTICAL K  NON-WETTABLE
   32      CONFINED      HARMONIC     1.000E+00    VERTICAL K  NON-WETTABLE
   33      CONFINED      HARMONIC     1.000E+00    VERTICAL K  NON-WETTABLE
   34      CONFINED      HARMONIC     1.000E+00    VERTICAL K  NON-WETTABLE
   35      CONFINED      HARMONIC     1.000E+00    VERTICAL K  NON-WETTABLE
   36      CONFINED      HARMONIC     1.000E+00    VERTICAL K  NON-WETTABLE
   37      CONFINED      HARMONIC     1.000E+00    VERTICAL K  NON-WETTABLE
   38      CONFINED      HARMONIC     1.000E+00    VERTICAL K  NON-WETTABLE
   39      CONFINED      HARMONIC     1.000E+00    VERTICAL K  NON-WETTABLE
   40      CONFINED      HARMONIC     1.000E+00    VERTICAL K  NON-WETTABLE

 WETTING CAPABILITY IS NOT ACTIVE IN ANY LAYER



              HYD. COND. ALONG ROWS FOR LAYER   1
 READING ON UNIT   15 WITH FORMAT: (120E15.6)          

      VERTICAL HYD. COND. =   1.00000     FOR LAYER   1



              HYD. COND. ALONG ROWS FOR LAYER   2
 READING ON UNIT   15 WITH FORMAT: (120E15.6)          

      VERTICAL HYD. COND. =   1.00000     FOR LAYER   2



              HYD. COND. ALONG ROWS FOR LAYER   3
 READING ON UNIT   15 WITH FORMAT: (120E15.6)          

      VERTICAL HYD. COND. =   1.00000     FOR LAYER   3



              HYD. COND. ALONG ROWS FOR LAYER   4
 READING ON UNIT   15 WITH FORMAT: (120E15.6)          

      VERTICAL HYD. COND. =   1.00000     FOR LAYER   4



              HYD. COND. ALONG ROWS FOR LAYER   5
 READING ON UNIT   15 WITH FORMAT: (120E15.6)          

      VERTICAL HYD. COND. =   1.00000     FOR LAYER   5



              HYD. COND. ALONG ROWS FOR LAYER   6
 READING ON UNIT   15 WITH FORMAT: (120E15.6)          

      VERTICAL HYD. COND. =   1.00000     FOR LAYER   6



              HYD. COND. ALONG ROWS FOR LAYER   7
 READING ON UNIT   15 WITH FORMAT: (120E15.6)          

      VERTICAL HYD. COND. =   1.00000     FOR LAYER   7



              HYD. COND. ALONG ROWS FOR LAYER   8
 READING ON UNIT   15 WITH FORMAT: (120E15.6)          

      VERTICAL HYD. COND. =   1.00000     FOR LAYER   8



              HYD. COND. ALONG ROWS FOR LAYER   9
 READING ON UNIT   15 WITH FORMAT: (120E15.6)          

      VERTICAL HYD. COND. =   1.00000     FOR LAYER   9



              HYD. COND. ALONG ROWS FOR LAYER  10
 READING ON UNIT   15 WITH FORMAT: (120E15.6)          

      VERTICAL HYD. COND. =   1.00000     FOR LAYER  10



              HYD. COND. ALONG ROWS FOR LAYER  11
 READING ON UNIT   15 WITH FORMAT: (120E15.6)          

      VERTICAL HYD. COND. =   1.00000     FOR LAYER  11



              HYD. COND. ALONG ROWS FOR LAYER  12
 READING ON UNIT   15 WITH FORMAT: (120E15.6)          

      VERTICAL HYD. COND. =   1.00000     FOR LAYER  12



              HYD. COND. ALONG ROWS FOR LAYER  13
 READING ON UNIT   15 WITH FORMAT: (120E15.6)          

      VERTICAL HYD. COND. =   1.00000     FOR LAYER  13



              HYD. COND. ALONG ROWS FOR LAYER  14
 READING ON UNIT   15 WITH FORMAT: (120E15.6)          

      VERTICAL HYD. COND. =   1.00000     FOR LAYER  14



              HYD. COND. ALONG ROWS FOR LAYER  15
 READING ON UNIT   15 WITH FORMAT: (120E15.6)          

      VERTICAL HYD. COND. =   1.00000     FOR LAYER  15



              HYD. COND. ALONG ROWS FOR LAYER  16
 READING ON UNIT   15 WITH FORMAT: (120E15.6)          

      VERTICAL HYD. COND. =   1.00000     FOR LAYER  16



              HYD. COND. ALONG ROWS FOR LAYER  17
 READING ON UNIT   15 WITH FORMAT: (120E15.6)          

      VERTICAL HYD. COND. =   1.00000     FOR LAYER  17



              HYD. COND. ALONG ROWS FOR LAYER  18
 READING ON UNIT   15 WITH FORMAT: (120E15.6)          

      VERTICAL HYD. COND. =   1.00000     FOR LAYER  18



              HYD. COND. ALONG ROWS FOR LAYER  19
 READING ON UNIT   15 WITH FORMAT: (120E15.6)          

      VERTICAL HYD. COND. =   1.00000     FOR LAYER  19



              HYD. COND. ALONG ROWS FOR LAYER  20
 READING ON UNIT   15 WITH FORMAT: (120E15.6)          

      VERTICAL HYD. COND. =   1.00000     FOR LAYER  20



              HYD. COND. ALONG ROWS FOR LAYER  21
 READING ON UNIT   15 WITH FORMAT: (120E15.6)          

      VERTICAL HYD. COND. =   1.00000     FOR LAYER  21



              HYD. COND. ALONG ROWS FOR LAYER  22
 READING ON UNIT   15 WITH FORMAT: (120E15.6)          

      VERTICAL HYD. COND. =   1.00000     FOR LAYER  22



              HYD. COND. ALONG ROWS FOR LAYER  23
 READING ON UNIT   15 WITH FORMAT: (120E15.6)          

      VERTICAL HYD. COND. =   1.00000     FOR LAYER  23



              HYD. COND. ALONG ROWS FOR LAYER  24
 READING ON UNIT   15 WITH FORMAT: (120E15.6)          

      VERTICAL HYD. COND. =   1.00000     FOR LAYER  24



              HYD. COND. ALONG ROWS FOR LAYER  25
 READING ON UNIT   15 WITH FORMAT: (120E15.6)          

      VERTICAL HYD. COND. =   1.00000     FOR LAYER  25



              HYD. COND. ALONG ROWS FOR LAYER  26
 READING ON UNIT   15 WITH FORMAT: (120E15.6)          

      VERTICAL HYD. COND. =   1.00000     FOR LAYER  26



              HYD. COND. ALONG ROWS FOR LAYER  27
 READING ON UNIT   15 WITH FORMAT: (120E15.6)          

      VERTICAL HYD. COND. =   1.00000     FOR LAYER  27



              HYD. COND. ALONG ROWS FOR LAYER  28
 READING ON UNIT   15 WITH FORMAT: (120E15.6)          

      VERTICAL HYD. COND. =   1.00000     FOR LAYER  28



              HYD. COND. ALONG ROWS FOR LAYER  29
 READING ON UNIT   15 WITH FORMAT: (120E15.6)          

      VERTICAL HYD. COND. =   1.00000     FOR LAYER  29



              HYD. COND. ALONG ROWS FOR LAYER  30
 READING ON UNIT   15 WITH FORMAT: (120E15.6)          

      VERTICAL HYD. COND. =   1.00000     FOR LAYER  30



              HYD. COND. ALONG ROWS FOR LAYER  31
 READING ON UNIT   15 WITH FORMAT: (120E15.6)          

      VERTICAL HYD. COND. =   1.00000     FOR LAYER  31



              HYD. COND. ALONG ROWS FOR LAYER  32
 READING ON UNIT   15 WITH FORMAT: (120E15.6)          

      VERTICAL HYD. COND. =   1.00000     FOR LAYER  32



              HYD. COND. ALONG ROWS FOR LAYER  33
 READING ON UNIT   15 WITH FORMAT: (120E15.6)          

      VERTICAL HYD. COND. =   1.00000     FOR LAYER  33



              HYD. COND. ALONG ROWS FOR LAYER  34
 READING ON UNIT   15 WITH FORMAT: (120E15.6)          

      VERTICAL HYD. COND. =   1.00000     FOR LAYER  34



              HYD. COND. ALONG ROWS FOR LAYER  35
 READING ON UNIT   15 WITH FORMAT: (120E15.6)          

      VERTICAL HYD. COND. =   1.00000     FOR LAYER  35



              HYD. COND. ALONG ROWS FOR LAYER  36
 READING ON UNIT   15 WITH FORMAT: (120E15.6)          

      VERTICAL HYD. COND. =   1.00000     FOR LAYER  36



              HYD. COND. ALONG ROWS FOR LAYER  37
 READING ON UNIT   15 WITH FORMAT: (120E15.6)          

      VERTICAL HYD. COND. =   1.00000     FOR LAYER  37



              HYD. COND. ALONG ROWS FOR LAYER  38
 READING ON UNIT   15 WITH FORMAT: (120E15.6)          

      VERTICAL HYD. COND. =   1.00000     FOR LAYER  38



              HYD. COND. ALONG ROWS FOR LAYER  39
 READING ON UNIT   15 WITH FORMAT: (120E15.6)          

      VERTICAL HYD. COND. =   1.00000     FOR LAYER  39



              HYD. COND. ALONG ROWS FOR LAYER  40
 READING ON UNIT   15 WITH FORMAT: (120E15.6)          

      VERTICAL HYD. COND. =   1.00000     FOR LAYER  40

 WEL -- WELL PACKAGE, VERSION 7, 5/2/2005 INPUT READ FROM UNIT   20
 # WEL package for MODFLOW-2005 generated by Flopy 3.9.1
 No named parameters
 MAXIMUM OF     40 ACTIVE WELLS AT ONE TIME


     0 Well parameters

 PCG -- CONJUGATE-GRADIENT SOLUTION PACKAGE, VERSION 7, 5/2/2005
 # PCG package for MODFLOW-2005 generated by Flopy 3.9.1
 MAXIMUM OF    100 CALLS OF SOLUTION ROUTINE
 MAXIMUM OF     50 INTERNAL ITERATIONS PER CALL TO SOLUTION ROUTINE
 MATRIX PRECONDITIONING TYPE :    1



                                    SOLUTION BY THE CONJUGATE-GRADIENT METHOD
                                   -------------------------------------------
                    MAXIMUM NUMBER OF CALLS TO PCG ROUTINE =      100
                        MAXIMUM ITERATIONS PER CALL TO PCG =       50
                               MATRIX PRECONDITIONING TYPE =        1
        RELAXATION FACTOR (ONLY USED WITH PRECOND. TYPE 1) =    0.10000E+01
 PARAMETER OF POLYNOMIAL PRECOND. = 2 (2) OR IS CALCULATED :        0
                         HEAD CHANGE CRITERION FOR CLOSURE =    0.10000E-04
                     RESIDUAL CHANGE CRITERION FOR CLOSURE =    0.10000E-04
            PCG HEAD AND RESIDUAL CHANGE PRINTOUT INTERVAL =      999
     PRINTING FROM SOLVER IS LIMITED(1) OR SUPPRESSED (>1) =        3
                            STEADY-STATE DAMPING PARAMETER =    0.10000E+01
                               TRANSIENT DAMPING PARAMETER =    0.10000E+01


 ***Link-MT3DMS Package v7***
 OPENING LINK-MT3DMS OUTPUT FILE: mt3d_link.ftl                                                                                                                                                                                           
 ON UNIT NUMBER:    54
 FILE TYPE: UNFORMATTED
 HEADER OPTION: EXTENDED
 ***Link-MT3DMS Package v7***

1
                            STRESS PERIOD NO.    1, LENGTH =   10.00000    
                            -----------------------------------------------

                              NUMBER OF TIME STEPS =     1

                               MULTIPLIER FOR DELT =     1.000

                            INITIAL TIME STEP SIZE =   10.00000    

 WELL NO.  LAYER   ROW   COL   STRESS RATE         
 --------------------------------------------------
      1      1      1      1      0.1543E-04
      2      2      1      1      0.1543E-04
      3      3      1      1      0.1543E-04
      4      4      1      1      0.1543E-04
      5      5      1      1      0.1543E-04
      6      6      1      1      0.1543E-04
      7      7      1      1      0.1543E-04
      8      8      1      1      0.1543E-04
      9      9      1      1      0.1543E-04
     10     10      1      1      0.1543E-04
     11     11      1      1      0.1543E-04
     12     12      1      1      0.1543E-04
     13     13      1      1      0.1543E-04
     14     14      1      1      0.1543E-04
     15     15      1      1      0.1543E-04
     16     16      1      1      0.1543E-04
     17     17      1      1      0.1543E-04
     18     18      1      1      0.1543E-04
     19     19      1      1      0.1543E-04
     20     20      1      1      0.1543E-04
     21     21      1      1      0.1543E-04
     22     22      1      1      0.1543E-04
     23     23      1      1      0.1543E-04
     24     24      1      1      0.1543E-04
     25     25      1      1      0.1543E-04
     26     26      1      1      0.1543E-04
     27     27      1      1      0.1543E-04
     28     28      1      1      0.1543E-04
     29     29      1      1      0.1543E-04
     30     30      1      1      0.1543E-04
     31     31      1      1      0.1543E-04
     32     32      1      1      0.1543E-04
     33     33      1      1      0.1543E-04
     34     34      1      1      0.1543E-04
     35     35      1      1      0.1543E-04
     36     36      1      1      0.1543E-04
     37     37      1      1      0.1543E-04
     38     38      1      1      0.1543E-04
     39     39      1      1      0.1543E-04
     40     40      1      1      0.1543E-04

     40 WELLS
 
 SOLVING FOR HEAD 

 OUTPUT CONTROL FOR STRESS PERIOD    1   TIME STEP    1
    SAVE HEAD FOR ALL LAYERS

 SAVING SATURATED THICKNESS AND FLOW TERMS ON UNIT   54 FOR MT3DMS
 BY THE LINK-MT3DMS PACKAGE V7 AT TIME STEP    1, STRESS PERIOD    1


 HEAD WILL BE SAVED ON UNIT   51 AT END OF TIME STEP    1, STRESS PERIOD    1
1
  VOLUMETRIC BUDGET FOR ENTIRE MODEL AT END OF TIME STEP    1, STRESS PERIOD   1
  ------------------------------------------------------------------------------

     CUMULATIVE VOLUMES      L**3       RATES FOR THIS TIME STEP      L**3/T
     ------------------                 ------------------------

           IN:                                      IN:
           ---                                      ---
             STORAGE =           0.0000               STORAGE =           0.0000
       CONSTANT HEAD =           0.0000         CONSTANT HEAD =           0.0000
               WELLS =       6.1714E-03                 WELLS =       6.1714E-04

            TOTAL IN =       6.1714E-03              TOTAL IN =       6.1714E-04

          OUT:                                     OUT:
          ----                                     ----
             STORAGE =           0.0000               STORAGE =           0.0000
       CONSTANT HEAD =       6.2257E-03         CONSTANT HEAD =       6.2257E-04
               WELLS =           0.0000                 WELLS =           0.0000

           TOTAL OUT =       6.2257E-03             TOTAL OUT =       6.2257E-04

            IN - OUT =      -5.4299E-05              IN - OUT =      -5.4299E-06

 PERCENT DISCREPANCY =          -0.88     PERCENT DISCREPANCY =          -0.88






         TIME SUMMARY AT END OF TIME STEP    1 IN STRESS PERIOD    1
                    SECONDS     MINUTES      HOURS       DAYS        YEARS
                    -----------------------------------------------------------
   TIME STEP LENGTH 8.64000E+05  14400.      240.00      10.000     2.73785E-02
 STRESS PERIOD TIME 8.64000E+05  14400.      240.00      10.000     2.73785E-02
         TOTAL TIME 8.64000E+05  14400.      240.00      10.000     2.73785E-02
1
1
                            STRESS PERIOD NO.    2, LENGTH =   22.00000    
                            -----------------------------------------------

                              NUMBER OF TIME STEPS =     1

                               MULTIPLIER FOR DELT =     1.000

                            INITIAL TIME STEP SIZE =   22.00000    

 REUSING NON-PARAMETER WELLS FROM LAST STRESS PERIOD

     40 WELLS
 
 SOLVING FOR HEAD 

 NO OUTPUT CONTROL FOR STRESS PERIOD    2   TIME STEP    1

 SAVING SATURATED THICKNESS AND FLOW TERMS ON UNIT   54 FOR MT3DMS
 BY THE LINK-MT3DMS PACKAGE V7 AT TIME STEP    1, STRESS PERIOD    2

1
  VOLUMETRIC BUDGET FOR ENTIRE MODEL AT END OF TIME STEP    1, STRESS PERIOD   2
  ------------------------------------------------------------------------------

     CUMULATIVE VOLUMES      L**3       RATES FOR THIS TIME STEP      L**3/T
     ------------------                 ------------------------

           IN:                                      IN:
           ---                                      ---
             STORAGE =           0.0000               STORAGE =           0.0000
       CONSTANT HEAD =           0.0000         CONSTANT HEAD =           0.0000
               WELLS =       1.9749E-02                 WELLS =       6.1714E-04

            TOTAL IN =       1.9749E-02              TOTAL IN =       6.1714E-04

          OUT:                                     OUT:
          ----                                     ----
             STORAGE =           0.0000               STORAGE =           0.0000
       CONSTANT HEAD =       1.9918E-02         CONSTANT HEAD =       6.2236E-04
               WELLS =           0.0000                 WELLS =           0.0000

           TOTAL OUT =       1.9918E-02             TOTAL OUT =       6.2236E-04

            IN - OUT =      -1.6910E-04              IN - OUT =      -5.2182E-06

 PERCENT DISCREPANCY =          -0.85     PERCENT DISCREPANCY =          -0.84






         TIME SUMMARY AT END OF TIME STEP    1 IN STRESS PERIOD    2
                    SECONDS     MINUTES      HOURS       DAYS        YEARS
                    -----------------------------------------------------------
   TIME STEP LENGTH 1.90080E+06  31680.      528.00      22.000     6.02327E-02
 STRESS PERIOD TIME 1.90080E+06  31680.      528.00      22.000     6.02327E-02
         TOTAL TIME 2.76480E+06  46080.      768.00      32.000     8.76112E-02
1
1
                            STRESS PERIOD NO.    3, LENGTH =   50.00000    
                            -----------------------------------------------

                              NUMBER OF TIME STEPS =     1

                               MULTIPLIER FOR DELT =     1.000

                            INITIAL TIME STEP SIZE =   50.00000    

 REUSING NON-PARAMETER WELLS FROM LAST STRESS PERIOD

     40 WELLS
 
 SOLVING FOR HEAD 

 NO OUTPUT CONTROL FOR STRESS PERIOD    3   TIME STEP    1

 SAVING SATURATED THICKNESS AND FLOW TERMS ON UNIT   54 FOR MT3DMS
 BY THE LINK-MT3DMS PACKAGE V7 AT TIME STEP    1, STRESS PERIOD    3

1
  VOLUMETRIC BUDGET FOR ENTIRE MODEL AT END OF TIME STEP    1, STRESS PERIOD   3
  ------------------------------------------------------------------------------

     CUMULATIVE VOLUMES      L**3       RATES FOR THIS TIME STEP      L**3/T
     ------------------                 ------------------------

           IN:                                      IN:
           ---                                      ---
             STORAGE =           0.0000               STORAGE =           0.0000
       CONSTANT HEAD =           0.0000         CONSTANT HEAD =           0.0000
               WELLS =       5.0606E-02                 WELLS =       6.1714E-04

            TOTAL IN =       5.0606E-02              TOTAL IN =       6.1714E-04

          OUT:                                     OUT:
          ----                                     ----
             STORAGE =           0.0000               STORAGE =           0.0000
       CONSTANT HEAD =       5.1026E-02         CONSTANT HEAD =       6.2217E-04
               WELLS =           0.0000                 WELLS =           0.0000

           TOTAL OUT =       5.1026E-02             TOTAL OUT =       6.2217E-04

            IN - OUT =      -4.2059E-04              IN - OUT =      -5.0297E-06

 PERCENT DISCREPANCY =          -0.83     PERCENT DISCREPANCY =          -0.81






         TIME SUMMARY AT END OF TIME STEP    1 IN STRESS PERIOD    3
                    SECONDS     MINUTES      HOURS       DAYS        YEARS
                    -----------------------------------------------------------
   TIME STEP LENGTH 4.32000E+06  72000.      1200.0      50.000     0.13689    
 STRESS PERIOD TIME 4.32000E+06  72000.      1200.0      50.000     0.13689    
         TOTAL TIME 7.08480E+06 1.18080E+05  1968.0      82.000     0.22450    
1

 Run end date and time (yyyy/mm/dd hh:mm:ss): 2025/02/06 15:35:07
 Elapsed run time:  0.032 Seconds

