                                  MODFLOW-2005     
      U.S. GEOLOGICAL SURVEY MODULAR FINITE-DIFFERENCE GROUND-WATER FLOW MODEL
                       VERSION 1.6.01 3/4/2009, with FMP2

 LIST FILE: tutorial02_B.list
                         UNIT    2

 OPENING tutorial02_B.dis
 FILE TYPE:DIS   UNIT   11   STATUS:OLD    
 FORMAT:FORMATTED              ACCESS:SEQUENTIAL          

 OPENING tutorial02_B.bas
 FILE TYPE:BAS6   UNIT   13   STATUS:OLD    
 FORMAT:FORMATTED              ACCESS:SEQUENTIAL          

 OPENING tutorial02_B.lpf
 FILE TYPE:LPF   UNIT   15   STATUS:OLD    
 FORMAT:FORMATTED              ACCESS:SEQUENTIAL          

 OPENING tutorial02_B.pcg
 FILE TYPE:PCG   UNIT   27   STATUS:OLD    
 FORMAT:FORMATTED              ACCESS:SEQUENTIAL          

 OPENING tutorial02_B.ghb
 FILE TYPE:GHB   UNIT   23   STATUS:OLD    
 FORMAT:FORMATTED              ACCESS:SEQUENTIAL          

 OPENING tutorial02_B.wel
 FILE TYPE:WEL   UNIT   20   STATUS:OLD    
 FORMAT:FORMATTED              ACCESS:SEQUENTIAL          

 OPENING tutorial02_B.oc
 FILE TYPE:OC   UNIT   14   STATUS:OLD    
 FORMAT:FORMATTED              ACCESS:SEQUENTIAL          

 OPENING tutorial02_B.cbc
 FILE TYPE:DATA(BINARY)   UNIT   53   STATUS:REPLACE
 FORMAT:BINARY                 ACCESS:SEQUENTIAL          

 OPENING tutorial02_B.hds
 FILE TYPE:DATA(BINARY)   UNIT   51   STATUS:REPLACE
 FORMAT:BINARY                 ACCESS:SEQUENTIAL          

 OPENING tutorial02_B.ddn
 FILE TYPE:DATA(BINARY)   UNIT   52   STATUS:REPLACE
 FORMAT:BINARY                 ACCESS:SEQUENTIAL          

 BAS -- BASIC PACKAGE, VERSION 7, 5/2/2005 INPUT READ FROM UNIT   13

 DISCRETIZATION INPUT DATA READ FROM UNIT   11
 # DIS package for MODFLOW-2005 generated by Flopy 3.9.1
    1 LAYERS        10 ROWS        20 COLUMNS
    3 STRESS PERIOD(S) IN SIMULATION
 MODEL TIME UNIT IS DAYS
 MODEL LENGTH UNIT IS METERS
  Confining bed flag for each layer:
   0

                     DELR =   50.0000    

                     DELC =   100.000    

 TOP ELEVATION OF LAYER 1 =   10.0000    

   MODEL LAYER BOTTOM EL. =  -50.0000     FOR LAYER   1


 STRESS PERIOD     LENGTH       TIME STEPS     MULTIPLIER FOR DELT    SS FLAG
 ----------------------------------------------------------------------------
        1         1.000000          1                    1.000         SS
        2         100.0000        100                    1.000         TR
        3         100.0000        100                    1.000         TR

 COMBINED STEADY-STATE AND TRANSIENT SIMULATION



 
 # BAS6 package for MODFLOW-2005 generated by Flopy 3.9.1                        
 THE FREE FORMAT OPTION HAS BEEN SELECTED



                     BOUNDARY ARRAY FOR LAYER   1
 READING ON UNIT   13 WITH FORMAT: (20I10)             

 AQUIFER HEAD WILL BE SET TO  -999.99     AT ALL NO-FLOW NODES (IBOUND=0).



                       INITIAL HEAD FOR LAYER   1
 READING ON UNIT   13 WITH FORMAT: (20E15.6)           
 # OC package for MODFLOW-2005 generated by Flopy 3.9.1

 OUTPUT CONTROL IS SPECIFIED ONLY AT TIME STEPS FOR WHICH OUTPUT IS DESIRED
 COMPACT CELL-BY-CELL BUDGET FILES WILL BE WRITTEN
 AUXILIARY DATA WILL BE SAVED IN CELL-BY-CELL BUDGET FILES
 HEAD PRINT FORMAT CODE IS   0    DRAWDOWN PRINT FORMAT CODE IS   0
 HEADS WILL BE SAVED ON UNIT   51    DRAWDOWNS WILL BE SAVED ON UNIT   52

 LPF -- LAYER-PROPERTY FLOW PACKAGE, VERSION 7, 5/2/2005
         INPUT READ FROM UNIT   15
 # LPF package for MODFLOW-2005 generated by Flopy 3.9.1
 CELL-BY-CELL FLOWS WILL BE SAVED ON UNIT   53
 HEAD AT CELLS THAT CONVERT TO DRY= -1.00000E+30
 No named parameters

   LAYER FLAGS:
 LAYER       LAYTYP        LAYAVG         CHANI        LAYVKA        LAYWET
 ---------------------------------------------------------------------------
    1             1             0     1.000E+00             0             0

   INTERPRETATION OF LAYER FLAGS:
                        INTERBLOCK     HORIZONTAL    DATA IN
         LAYER TYPE   TRANSMISSIVITY   ANISOTROPY   ARRAY VKA   WETTABILITY
 LAYER      (LAYTYP)      (LAYAVG)       (CHANI)      (LAYVKA)      (LAYWET)
 ---------------------------------------------------------------------------
    1   CONVERTIBLE      HARMONIC     1.000E+00    VERTICAL K  NON-WETTABLE

 WETTING CAPABILITY IS NOT ACTIVE IN ANY LAYER

    HYD. COND. ALONG ROWS =   1.00000     FOR LAYER   1

      VERTICAL HYD. COND. =   1.00000     FOR LAYER   1

         SPECIFIC STORAGE =  1.000000E-04 FOR LAYER   1

           SPECIFIC YIELD =  0.100000     FOR LAYER   1

 WEL -- WELL PACKAGE, VERSION 7, 5/2/2005 INPUT READ FROM UNIT   20
 # WEL package for MODFLOW-2005 generated by Flopy 3.9.1
 No named parameters
 MAXIMUM OF      1 ACTIVE WELLS AT ONE TIME


     0 Well parameters

 GHB -- GENERAL-HEAD BOUNDARY PACKAGE, VERSION 7, 5/2/2005
         INPUT READ FROM UNIT   23
 # GHB package for MODFLOW-2005 generated by Flopy 3.9.1
 No named parameters
 MAXIMUM OF     20 ACTIVE GHB CELLS AT ONE TIME


     0 GHB parameters

 PCG -- CONJUGATE-GRADIENT SOLUTION PACKAGE, VERSION 7, 5/2/2005
 # PCG package for MODFLOW-2005 generated by Flopy 3.9.1
 MAXIMUM OF     50 CALLS OF SOLUTION ROUTINE
 MAXIMUM OF     30 INTERNAL ITERATIONS PER CALL TO SOLUTION ROUTINE
 MATRIX PRECONDITIONING TYPE :    1



                                    SOLUTION BY THE CONJUGATE-GRADIENT METHOD
                                   -------------------------------------------
                    MAXIMUM NUMBER OF CALLS TO PCG ROUTINE =       50
                        MAXIMUM ITERATIONS PER CALL TO PCG =       30
                               MATRIX PRECONDITIONING TYPE =        1
        RELAXATION FACTOR (ONLY USED WITH PRECOND. TYPE 1) =    0.10000E+01
 PARAMETER OF POLYNOMIAL PRECOND. = 2 (2) OR IS CALCULATED :        0
                         HEAD CHANGE CRITERION FOR CLOSURE =    0.10000E-04
                     RESIDUAL CHANGE CRITERION FOR CLOSURE =    0.10000E-04
            PCG HEAD AND RESIDUAL CHANGE PRINTOUT INTERVAL =      999
     PRINTING FROM SOLVER IS LIMITED(1) OR SUPPRESSED (>1) =        3
                            STEADY-STATE DAMPING PARAMETER =    0.10000E+01
                               TRANSIENT DAMPING PARAMETER =    0.10000E+01
1
                            STRESS PERIOD NO.    1, LENGTH =   1.000000    
                            -----------------------------------------------

                              NUMBER OF TIME STEPS =     1

                               MULTIPLIER FOR DELT =     1.000

                            INITIAL TIME STEP SIZE =   1.000000    

 WELL NO.  LAYER   ROW   COL   STRESS RATE         
 --------------------------------------------------
      1      1      5     10       0.000    

      1 WELL 

 BOUND. NO. LAYER   ROW   COL     STAGE      CONDUCTANCE         
 ----------------------------------------------------------------
      1      1      1      1       10.00           6000.    
      2      1      1     20       0.000           5000.    
      3      1      2      1       10.00           6000.    
      4      1      2     20       0.000           5000.    
      5      1      3      1       10.00           6000.    
      6      1      3     20       0.000           5000.    
      7      1      4      1       10.00           6000.    
      8      1      4     20       0.000           5000.    
      9      1      5      1       10.00           6000.    
     10      1      5     20       0.000           5000.    
     11      1      6      1       10.00           6000.    
     12      1      6     20       0.000           5000.    
     13      1      7      1       10.00           6000.    
     14      1      7     20       0.000           5000.    
     15      1      8      1       10.00           6000.    
     16      1      8     20       0.000           5000.    
     17      1      9      1       10.00           6000.    
     18      1      9     20       0.000           5000.    
     19      1     10      1       10.00           6000.    
     20      1     10     20       0.000           5000.    

     20 GHB CELLS
 
 SOLVING FOR HEAD 

 OUTPUT CONTROL FOR STRESS PERIOD    1   TIME STEP   1
    SAVE HEAD FOR ALL LAYERS
    SAVE DRAWDOWN FOR ALL LAYERS
    SAVE BUDGET
    PRINT HEAD FOR ALL LAYERS
    PRINT BUDGET
 UBDSV2 SAVING "   CONSTANT HEAD" ON UNIT  53 AT TIME STEP  1, STRESS PERIOD   1
 UBDSV1 SAVING "FLOW RIGHT FACE " ON UNIT  53 AT TIME STEP  1, STRESS PERIOD   1
 UBDSV1 SAVING "FLOW FRONT FACE " ON UNIT  53 AT TIME STEP  1, STRESS PERIOD   1
1
              HEAD IN LAYER   1 AT END OF TIME STEP   1 IN STRESS PERIOD    1
  ---------------------------------------------------------------------------

            1           2           3           4           5           6           7           8           9          10
           11          12          13          14          15          16          17          18          19          20
 ........................................................................................................................
   1    9.990       9.507       9.019       8.528       8.032       7.532       7.028       6.519       6.006       5.488    
        4.965       4.437       3.903       3.365       2.821       2.271       1.715       1.154      0.5859      1.1554E-02
   2    9.990       9.507       9.019       8.528       8.032       7.532       7.028       6.519       6.006       5.488    
        4.965       4.437       3.903       3.365       2.821       2.271       1.715       1.154      0.5859      1.1554E-02
   3    9.990       9.507       9.019       8.528       8.032       7.532       7.028       6.519       6.006       5.488    
        4.965       4.437       3.903       3.365       2.821       2.271       1.715       1.154      0.5859      1.1554E-02
   4    9.990       9.507       9.019       8.528       8.032       7.532       7.028       6.519       6.006       5.488    
        4.965       4.437       3.903       3.365       2.821       2.271       1.715       1.154      0.5859      1.1554E-02
   5    9.990       9.507       9.019       8.528       8.032       7.532       7.028       6.519       6.006       5.488    
        4.965       4.437       3.903       3.365       2.821       2.271       1.715       1.154      0.5859      1.1554E-02
   6    9.990       9.507       9.019       8.528       8.032       7.532       7.028       6.519       6.006       5.488    
        4.965       4.437       3.903       3.365       2.821       2.271       1.715       1.154      0.5859      1.1554E-02
   7    9.990       9.507       9.019       8.528       8.032       7.532       7.028       6.519       6.006       5.488    
        4.965       4.437       3.903       3.365       2.821       2.271       1.715       1.154      0.5859      1.1554E-02
   8    9.990       9.507       9.019       8.528       8.032       7.532       7.028       6.519       6.006       5.488    
        4.965       4.437       3.903       3.365       2.821       2.271       1.715       1.154      0.5859      1.1554E-02
   9    9.990       9.507       9.019       8.528       8.032       7.532       7.028       6.519       6.006       5.488    
        4.965       4.437       3.903       3.365       2.821       2.271       1.715       1.154      0.5859      1.1554E-02
  10    9.990       9.507       9.019       8.528       8.032       7.532       7.028       6.519       6.006       5.488    
        4.965       4.437       3.903       3.365       2.821       2.271       1.715       1.154      0.5859      1.1554E-02

 HEAD WILL BE SAVED ON UNIT   51 AT END OF TIME STEP   1, STRESS PERIOD    1

 DRAWDOWN WILL BE SAVED ON UNIT   52 AT END OF TIME STEP   1, STRESS PERIOD    1
1
  VOLUMETRIC BUDGET FOR ENTIRE MODEL AT END OF TIME STEP  1 IN STRESS PERIOD   1
  ------------------------------------------------------------------------------

     CUMULATIVE VOLUMES      L**3       RATES FOR THIS TIME STEP      L**3/T
     ------------------                 ------------------------

           IN:                                      IN:
           ---                                      ---
             STORAGE =           0.0000               STORAGE =           0.0000
       CONSTANT HEAD =           0.0000         CONSTANT HEAD =           0.0000
               WELLS =           0.0000                 WELLS =           0.0000
     HEAD DEP BOUNDS =         577.7177       HEAD DEP BOUNDS =         577.7177

            TOTAL IN =         577.7177              TOTAL IN =         577.7177

          OUT:                                     OUT:
          ----                                     ----
             STORAGE =           0.0000               STORAGE =           0.0000
       CONSTANT HEAD =           0.0000         CONSTANT HEAD =           0.0000
               WELLS =           0.0000                 WELLS =           0.0000
     HEAD DEP BOUNDS =         577.7177       HEAD DEP BOUNDS =         577.7177

           TOTAL OUT =         577.7177             TOTAL OUT =         577.7177

            IN - OUT =           0.0000              IN - OUT =           0.0000

 PERCENT DISCREPANCY =           0.00     PERCENT DISCREPANCY =           0.00






          TIME SUMMARY AT END OF TIME STEP   1 IN STRESS PERIOD    1
                    SECONDS     MINUTES      HOURS       DAYS        YEARS
                    -----------------------------------------------------------
   TIME STEP LENGTH  86400.      1440.0      24.000      1.0000     2.73785E-03
 STRESS PERIOD TIME  86400.      1440.0      24.000      1.0000     2.73785E-03
         TOTAL TIME  86400.      1440.0      24.000      1.0000     2.73785E-03
1
1
                            STRESS PERIOD NO.    2, LENGTH =   100.0000    
                            -----------------------------------------------

                              NUMBER OF TIME STEPS =   100

                               MULTIPLIER FOR DELT =     1.000

                            INITIAL TIME STEP SIZE =   1.000000    

 WELL NO.  LAYER   ROW   COL   STRESS RATE         
 --------------------------------------------------
      1      1      5     10       0.000    

      1 WELL 

 BOUND. NO. LAYER   ROW   COL     STAGE      CONDUCTANCE         
 ----------------------------------------------------------------
      1      1      1      1       10.00           6000.    
      2      1      1     20       0.000           5000.    
      3      1      2      1       10.00           6000.    
      4      1      2     20       0.000           5000.    
      5      1      3      1       10.00           6000.    
      6      1      3     20       0.000           5000.    
      7      1      4      1       10.00           6000.    
      8      1      4     20       0.000           5000.    
      9      1      5      1       10.00           6000.    
     10      1      5     20       0.000           5000.    
     11      1      6      1       10.00           6000.    
     12      1      6     20       0.000           5000.    
     13      1      7      1       10.00           6000.    
     14      1      7     20       0.000           5000.    
     15      1      8      1       10.00           6000.    
     16      1      8     20       0.000           5000.    
     17      1      9      1       10.00           6000.    
     18      1      9     20       0.000           5000.    
     19      1     10      1       10.00           6000.    
     20      1     10     20       0.000           5000.    

     20 GHB CELLS
 
 SOLVING FOR HEAD 

 OUTPUT CONTROL FOR STRESS PERIOD    2   TIME STEP   1
    SAVE HEAD FOR ALL LAYERS
    SAVE DRAWDOWN FOR ALL LAYERS
    SAVE BUDGET
    PRINT HEAD FOR ALL LAYERS
    PRINT BUDGET
 UBDSV1 SAVING "         STORAGE" ON UNIT  53 AT TIME STEP  1, STRESS PERIOD   2
 UBDSV2 SAVING "   CONSTANT HEAD" ON UNIT  53 AT TIME STEP  1, STRESS PERIOD   2
 UBDSV1 SAVING "FLOW RIGHT FACE " ON UNIT  53 AT TIME STEP  1, STRESS PERIOD   2
 UBDSV1 SAVING "FLOW FRONT FACE " ON UNIT  53 AT TIME STEP  1, STRESS PERIOD   2
1
              HEAD IN LAYER   1 AT END OF TIME STEP   1 IN STRESS PERIOD    2
  ---------------------------------------------------------------------------

            1           2           3           4           5           6           7           8           9          10
           11          12          13          14          15          16          17          18          19          20
 ........................................................................................................................
   1    9.990       9.507       9.019       8.528       8.032       7.532       7.028       6.519       6.006       5.488    
        4.965       4.437       3.903       3.365       2.821       2.271       1.715       1.154      0.5859      1.1554E-02
   2    9.990       9.507       9.019       8.528       8.032       7.532       7.028       6.519       6.006       5.488    
        4.965       4.437       3.903       3.365       2.821       2.271       1.715       1.154      0.5859      1.1554E-02
   3    9.990       9.507       9.019       8.528       8.032       7.532       7.028       6.519       6.006       5.488    
        4.965       4.437       3.903       3.365       2.821       2.271       1.715       1.154      0.5859      1.1554E-02
   4    9.990       9.507       9.019       8.528       8.032       7.532       7.028       6.519       6.006       5.488    
        4.965       4.437       3.903       3.365       2.821       2.271       1.715       1.154      0.5859      1.1554E-02
   5    9.990       9.507       9.019       8.528       8.032       7.532       7.028       6.519       6.006       5.488    
        4.965       4.437       3.903       3.365       2.821       2.271       1.715       1.154      0.5859      1.1554E-02
   6    9.990       9.507       9.019       8.528       8.032       7.532       7.028       6.519       6.006       5.488    
        4.965       4.437       3.903       3.365       2.821       2.271       1.715       1.154      0.5859      1.1554E-02
   7    9.990       9.507       9.019       8.528       8.032       7.532       7.028       6.519       6.006       5.488    
        4.965       4.437       3.903       3.365       2.821       2.271       1.715       1.154      0.5859      1.1554E-02
   8    9.990       9.507       9.019       8.528       8.032       7.532       7.028       6.519       6.006       5.488    
        4.965       4.437       3.903       3.365       2.821       2.271       1.715       1.154      0.5859      1.1554E-02
   9    9.990       9.507       9.019       8.528       8.032       7.532       7.028       6.519       6.006       5.488    
        4.965       4.437       3.903       3.365       2.821       2.271       1.715       1.154      0.5859      1.1554E-02
  10    9.990       9.507       9.019       8.528       8.032       7.532       7.028       6.519       6.006       5.488    
        4.965       4.437       3.903       3.365       2.821       2.271       1.715       1.154      0.5859      1.1554E-02

 HEAD WILL BE SAVED ON UNIT   51 AT END OF TIME STEP   1, STRESS PERIOD    2

 DRAWDOWN WILL BE SAVED ON UNIT   52 AT END OF TIME STEP   1, STRESS PERIOD    2
1
  VOLUMETRIC BUDGET FOR ENTIRE MODEL AT END OF TIME STEP  1 IN STRESS PERIOD   2
  ------------------------------------------------------------------------------

     CUMULATIVE VOLUMES      L**3       RATES FOR THIS TIME STEP      L**3/T
     ------------------                 ------------------------

           IN:                                      IN:
           ---                                      ---
             STORAGE =       2.4076E-03               STORAGE =       2.4076E-03
       CONSTANT HEAD =           0.0000         CONSTANT HEAD =           0.0000
               WELLS =           0.0000                 WELLS =           0.0000
     HEAD DEP BOUNDS =        1155.4192       HEAD DEP BOUNDS =         577.7015

            TOTAL IN =        1155.4216              TOTAL IN =         577.7039

          OUT:                                     OUT:
          ----                                     ----
             STORAGE =       6.1035E-04               STORAGE =       6.1035E-04
       CONSTANT HEAD =           0.0000         CONSTANT HEAD =           0.0000
               WELLS =           0.0000                 WELLS =           0.0000
     HEAD DEP BOUNDS =        1155.4373       HEAD DEP BOUNDS =         577.7195

           TOTAL OUT =        1155.4379             TOTAL OUT =         577.7201

            IN - OUT =      -1.6235E-02              IN - OUT =      -1.6174E-02

 PERCENT DISCREPANCY =           0.00     PERCENT DISCREPANCY =           0.00






          TIME SUMMARY AT END OF TIME STEP   1 IN STRESS PERIOD    2
                    SECONDS     MINUTES      HOURS       DAYS        YEARS
                    -----------------------------------------------------------
   TIME STEP LENGTH  86400.      1440.0      24.000      1.0000     2.73785E-03
 STRESS PERIOD TIME  86400.      1440.0      24.000      1.0000     2.73785E-03
         TOTAL TIME 1.72800E+05  2880.0      48.000      2.0000     5.47570E-03
1
 
 SOLVING FOR HEAD 

 OUTPUT CONTROL FOR STRESS PERIOD    2   TIME STEP   2
    SAVE HEAD FOR ALL LAYERS
    SAVE DRAWDOWN FOR ALL LAYERS
    SAVE BUDGET
    PRINT HEAD FOR ALL LAYERS
    PRINT BUDGET
 UBDSV1 SAVING "         STORAGE" ON UNIT  53 AT TIME STEP  2, STRESS PERIOD   2
 UBDSV2 SAVING "   CONSTANT HEAD" ON UNIT  53 AT TIME STEP  2, STRESS PERIOD   2
 UBDSV1 SAVING "FLOW RIGHT FACE " ON UNIT  53 AT TIME STEP  2, STRESS PERIOD   2
 UBDSV1 SAVING "FLOW FRONT FACE " ON UNIT  53 AT TIME STEP  2, STRESS PERIOD   2
1
              HEAD IN LAYER   1 AT END OF TIME STEP   2 IN STRESS PERIOD    2
  ---------------------------------------------------------------------------

            1           2           3           4           5           6           7           8           9          10
           11          12          13          14          15          16          17          18          19          20
 ........................................................................................................................
   1    9.990       9.507       9.019       8.528       8.032       7.532       7.028       6.519       6.006       5.488    
        4.965       4.437       3.903       3.365       2.821       2.271       1.715       1.154      0.5859      1.1554E-02
   2    9.990       9.507       9.019       8.528       8.032       7.532       7.028       6.519       6.006       5.488    
        4.965       4.437       3.903       3.365       2.821       2.271       1.715       1.154      0.5859      1.1554E-02
   3    9.990       9.507       9.019       8.528       8.032       7.532       7.028       6.519       6.006       5.488    
        4.965       4.437       3.903       3.365       2.821       2.271       1.715       1.154      0.5859      1.1554E-02
   4    9.990       9.507       9.019       8.528       8.032       7.532       7.028       6.519       6.006       5.488    
        4.965       4.437       3.903       3.365       2.821       2.271       1.715       1.154      0.5859      1.1554E-02
   5    9.990       9.507       9.019       8.528       8.032       7.532       7.028       6.519       6.006       5.488    
        4.965       4.437       3.903       3.365       2.821       2.271       1.715       1.154      0.5859      1.1554E-02
   6    9.990       9.507       9.019       8.528       8.032       7.532       7.028       6.519       6.006       5.488    
        4.965       4.437       3.903       3.365       2.821       2.271       1.715       1.154      0.5859      1.1554E-02
   7    9.990       9.507       9.019       8.528       8.032       7.532       7.028       6.519       6.006       5.488    
        4.965       4.437       3.903       3.365       2.821       2.271       1.715       1.154      0.5859      1.1554E-02
   8    9.990       9.507       9.019       8.528       8.032       7.532       7.028       6.519       6.006       5.488    
        4.965       4.437       3.903       3.365       2.821       2.271       1.715       1.154      0.5859      1.1554E-02
   9    9.990       9.507       9.019       8.528       8.032       7.532       7.028       6.519       6.006       5.488    
        4.965       4.437       3.903       3.365       2.821       2.271       1.715       1.154      0.5859      1.1554E-02
  10    9.990       9.507       9.019       8.528       8.032       7.532       7.028       6.519       6.006       5.488    
        4.965       4.437       3.903       3.365       2.821       2.271       1.715       1.154      0.5859      1.1554E-02

 HEAD WILL BE SAVED ON UNIT   51 AT END OF TIME STEP   2, STRESS PERIOD    2

 DRAWDOWN WILL BE SAVED ON UNIT   52 AT END OF TIME STEP   2, STRESS PERIOD    2
1
  VOLUMETRIC BUDGET FOR ENTIRE MODEL AT END OF TIME STEP  2 IN STRESS PERIOD   2
  ------------------------------------------------------------------------------

     CUMULATIVE VOLUMES      L**3       RATES FOR THIS TIME STEP      L**3/T
     ------------------                 ------------------------

           IN:                                      IN:
           ---                                      ---
             STORAGE =       4.8108E-03               STORAGE =       2.4033E-03
       CONSTANT HEAD =           0.0000         CONSTANT HEAD =           0.0000
               WELLS =           0.0000                 WELLS =           0.0000
     HEAD DEP BOUNDS =        1733.1206       HEAD DEP BOUNDS =         577.7015

            TOTAL IN =        1733.1254              TOTAL IN =         577.7039

          OUT:                                     OUT:
          ----                                     ----
             STORAGE =       2.4414E-03               STORAGE =       1.8311E-03
       CONSTANT HEAD =           0.0000         CONSTANT HEAD =           0.0000
               WELLS =           0.0000                 WELLS =           0.0000
     HEAD DEP BOUNDS =        1733.1567       HEAD DEP BOUNDS =         577.7195

           TOTAL OUT =        1733.1592             TOTAL OUT =         577.7213

            IN - OUT =      -3.3813E-02              IN - OUT =      -1.7456E-02

 PERCENT DISCREPANCY =           0.00     PERCENT DISCREPANCY =           0.00






          TIME SUMMARY AT END OF TIME STEP   2 IN STRESS PERIOD    2
                    SECONDS     MINUTES      HOURS       DAYS        YEARS
                    -----------------------------------------------------------
   TIME STEP LENGTH  86400.      1440.0      24.000      1.0000     2.73785E-03
 STRESS PERIOD TIME 1.72800E+05  2880.0      48.000      2.0000     5.47570E-03
         TOTAL TIME 2.59200E+05  4320.0      72.000      3.0000     8.21355E-03
1
 
 SOLVING FOR HEAD 

 OUTPUT CONTROL FOR STRESS PERIOD    2   TIME STEP   3
    SAVE HEAD FOR ALL LAYERS
    SAVE DRAWDOWN FOR ALL LAYERS
    SAVE BUDGET
    PRINT HEAD FOR ALL LAYERS
    PRINT BUDGET
 UBDSV1 SAVING "         STORAGE" ON UNIT  53 AT TIME STEP  3, STRESS PERIOD   2
 UBDSV2 SAVING "   CONSTANT HEAD" ON UNIT  53 AT TIME STEP  3, STRESS PERIOD   2
 UBDSV1 SAVING "FLOW RIGHT FACE " ON UNIT  53 AT TIME STEP  3, STRESS PERIOD   2
 UBDSV1 SAVING "FLOW FRONT FACE " ON UNIT  53 AT TIME STEP  3, STRESS PERIOD   2
1
              HEAD IN LAYER   1 AT END OF TIME STEP   3 IN STRESS PERIOD    2
  ---------------------------------------------------------------------------

            1           2           3           4           5           6           7           8           9          10
           11          12          13          14          15          16          17          18          19          20
 ........................................................................................................................
   1    9.990       9.507       9.019       8.528       8.032       7.532       7.028       6.519       6.006       5.488    
        4.965       4.437       3.903       3.365       2.821       2.271       1.715       1.154      0.5859      1.1554E-02
   2    9.990       9.507       9.019       8.528       8.032       7.532       7.028       6.519       6.006       5.488    
        4.965       4.437       3.903       3.365       2.821       2.271       1.715       1.154      0.5859      1.1554E-02
   3    9.990       9.507       9.019       8.528       8.032       7.532       7.028       6.519       6.006       5.488    
        4.965       4.437       3.903       3.365       2.821       2.271       1.715       1.154      0.5859      1.1554E-02
   4    9.990       9.507       9.019       8.528       8.032       7.532       7.028       6.519       6.006       5.488    
        4.965       4.437       3.903       3.365       2.821       2.271       1.715       1.154      0.5859      1.1554E-02
   5    9.990       9.507       9.019       8.528       8.032       7.532       7.028       6.519       6.006       5.488    
        4.965       4.437       3.903       3.365       2.821       2.271       1.715       1.154      0.5859      1.1554E-02
   6    9.990       9.507       9.019       8.528       8.032       7.532       7.028       6.519       6.006       5.488    
        4.965       4.437       3.903       3.365       2.821       2.271       1.715       1.154      0.5859      1.1554E-02
   7    9.990       9.507       9.019       8.528       8.032       7.532       7.028       6.519       6.006       5.488    
        4.965       4.437       3.903       3.365       2.821       2.271       1.715       1.154      0.5859      1.1554E-02
   8    9.990       9.507       9.019       8.528       8.032       7.532       7.028       6.519       6.006       5.488    
        4.965       4.437       3.903       3.365       2.821       2.271       1.715       1.154      0.5859      1.1554E-02
   9    9.990       9.507       9.019       8.528       8.032       7.532       7.028       6.519       6.006       5.488    
        4.965       4.437       3.903       3.365       2.821       2.271       1.715       1.154      0.5859      1.1554E-02
  10    9.990       9.507       9.019       8.528       8.032       7.532       7.028       6.519       6.006       5.488    
        4.965       4.437       3.903       3.365       2.821       2.271       1.715       1.154      0.5859      1.1554E-02

 HEAD WILL BE SAVED ON UNIT   51 AT END OF TIME STEP   3, STRESS PERIOD    2

 DRAWDOWN WILL BE SAVED ON UNIT   52 AT END OF TIME STEP   3, STRESS PERIOD    2
1
  VOLUMETRIC BUDGET FOR ENTIRE MODEL AT END OF TIME STEP  3 IN STRESS PERIOD   2
  ------------------------------------------------------------------------------

     CUMULATIVE VOLUMES      L**3       RATES FOR THIS TIME STEP      L**3/T
     ------------------                 ------------------------

           IN:                                      IN:
           ---                                      ---
             STORAGE =       7.3361E-03               STORAGE =       2.5253E-03
       CONSTANT HEAD =           0.0000         CONSTANT HEAD =           0.0000
               WELLS =           0.0000                 WELLS =           0.0000
     HEAD DEP BOUNDS =        2310.8220       HEAD DEP BOUNDS =         577.7015

            TOTAL IN =        2310.8293              TOTAL IN =         577.7040

          OUT:                                     OUT:
          ----                                     ----
             STORAGE =       4.2725E-03               STORAGE =       1.8311E-03
       CONSTANT HEAD =           0.0000         CONSTANT HEAD =           0.0000
               WELLS =           0.0000                 WELLS =           0.0000
     HEAD DEP BOUNDS =        2310.8762       HEAD DEP BOUNDS =         577.7195

           TOTAL OUT =        2310.8804             TOTAL OUT =         577.7213

            IN - OUT =      -5.1025E-02              IN - OUT =      -1.7334E-02

 PERCENT DISCREPANCY =           0.00     PERCENT DISCREPANCY =           0.00






          TIME SUMMARY AT END OF TIME STEP   3 IN STRESS PERIOD    2
                    SECONDS     MINUTES      HOURS       DAYS        YEARS
                    -----------------------------------------------------------
   TIME STEP LENGTH  86400.      1440.0      24.000      1.0000     2.73785E-03
 STRESS PERIOD TIME 2.59200E+05  4320.0      72.000      3.0000     8.21355E-03
         TOTAL TIME 3.45600E+05  5760.0      96.000      4.0000     1.09514E-02
1
 
 SOLVING FOR HEAD 

 OUTPUT CONTROL FOR STRESS PERIOD    2   TIME STEP   4
    SAVE HEAD FOR ALL LAYERS
    SAVE DRAWDOWN FOR ALL LAYERS
    SAVE BUDGET
    PRINT HEAD FOR ALL LAYERS
    PRINT BUDGET
 UBDSV1 SAVING "         STORAGE" ON UNIT  53 AT TIME STEP  4, STRESS PERIOD   2
 UBDSV2 SAVING "   CONSTANT HEAD" ON UNIT  53 AT TIME STEP  4, STRESS PERIOD   2
 UBDSV1 SAVING "FLOW RIGHT FACE " ON UNIT  53 AT TIME STEP  4, STRESS PERIOD   2
 UBDSV1 SAVING "FLOW FRONT FACE " ON UNIT  53 AT TIME STEP  4, STRESS PERIOD   2
1
              HEAD IN LAYER   1 AT END OF TIME STEP   4 IN STRESS PERIOD    2
  ---------------------------------------------------------------------------

            1           2           3           4           5           6           7           8           9          10
           11          12          13          14          15          16          17          18          19          20
 ........................................................................................................................
   1    9.990       9.507       9.019       8.528       8.032       7.532       7.028       6.519       6.006       5.488    
        4.965       4.437       3.903       3.365       2.821       2.271       1.715       1.154      0.5859      1.1554E-02
   2    9.990       9.507       9.019       8.528       8.032       7.532       7.028       6.519       6.006       5.488    
        4.965       4.437       3.903       3.365       2.821       2.271       1.715       1.154      0.5859      1.1554E-02
   3    9.990       9.507       9.019       8.528       8.032       7.532       7.028       6.519       6.006       5.488    
        4.965       4.437       3.903       3.365       2.821       2.271       1.715       1.154      0.5859      1.1554E-02
   4    9.990       9.507       9.019       8.528       8.032       7.532       7.028       6.519       6.006       5.488    
        4.965       4.437       3.903       3.365       2.821       2.271       1.715       1.154      0.5859      1.1554E-02
   5    9.990       9.507       9.019       8.528       8.032       7.532       7.028       6.519       6.006       5.488    
        4.965       4.437       3.903       3.365       2.821       2.271       1.715       1.154      0.5859      1.1554E-02
   6    9.990       9.507       9.019       8.528       8.032       7.532       7.028       6.519       6.006       5.488    
        4.965       4.437       3.903       3.365       2.821       2.271       1.715       1.154      0.5859      1.1554E-02
   7    9.990       9.507       9.019       8.528       8.032       7.532       7.028       6.519       6.006       5.488    
        4.965       4.437       3.903       3.365       2.821       2.271       1.715       1.154      0.5859      1.1554E-02
   8    9.990       9.507       9.019       8.528       8.032       7.532       7.028       6.519       6.006       5.488    
        4.965       4.437       3.903       3.365       2.821       2.271       1.715       1.154      0.5859      1.1554E-02
   9    9.990       9.507       9.019       8.528       8.032       7.532       7.028       6.519       6.006       5.488    
        4.965       4.437       3.903       3.365       2.821       2.271       1.715       1.154      0.5859      1.1554E-02
  10    9.990       9.507       9.019       8.528       8.032       7.532       7.028       6.519       6.006       5.488    
        4.965       4.437       3.903       3.365       2.821       2.271       1.715       1.154      0.5859      1.1554E-02

 HEAD WILL BE SAVED ON UNIT   51 AT END OF TIME STEP   4, STRESS PERIOD    2

 DRAWDOWN WILL BE SAVED ON UNIT   52 AT END OF TIME STEP   4, STRESS PERIOD    2
1
  VOLUMETRIC BUDGET FOR ENTIRE MODEL AT END OF TIME STEP  4 IN STRESS PERIOD   2
  ------------------------------------------------------------------------------

     CUMULATIVE VOLUMES      L**3       RATES FOR THIS TIME STEP      L**3/T
     ------------------                 ------------------------

           IN:                                      IN:
           ---                                      ---
             STORAGE =       9.8615E-03               STORAGE =       2.5253E-03
       CONSTANT HEAD =           0.0000         CONSTANT HEAD =           0.0000
               WELLS =           0.0000                 WELLS =           0.0000
     HEAD DEP BOUNDS =        2888.5234       HEAD DEP BOUNDS =         577.7015

            TOTAL IN =        2888.5332              TOTAL IN =         577.7040

          OUT:                                     OUT:
          ----                                     ----
             STORAGE =       6.1035E-03               STORAGE =       1.8311E-03
       CONSTANT HEAD =           0.0000         CONSTANT HEAD =           0.0000
               WELLS =           0.0000                 WELLS =           0.0000
     HEAD DEP BOUNDS =        2888.5957       HEAD DEP BOUNDS =         577.7195

           TOTAL OUT =        2888.6018             TOTAL OUT =         577.7213

            IN - OUT =      -6.8604E-02              IN - OUT =      -1.7334E-02

 PERCENT DISCREPANCY =           0.00     PERCENT DISCREPANCY =           0.00






          TIME SUMMARY AT END OF TIME STEP   4 IN STRESS PERIOD    2
                    SECONDS     MINUTES      HOURS       DAYS        YEARS
                    -----------------------------------------------------------
   TIME STEP LENGTH  86400.      1440.0      24.000      1.0000     2.73785E-03
 STRESS PERIOD TIME 3.45600E+05  5760.0      96.000      4.0000     1.09514E-02
         TOTAL TIME 4.32000E+05  7200.0      120.00      5.0000     1.36893E-02
1
 
 SOLVING FOR HEAD 

 OUTPUT CONTROL FOR STRESS PERIOD    2   TIME STEP   5
    SAVE HEAD FOR ALL LAYERS
    SAVE DRAWDOWN FOR ALL LAYERS
    SAVE BUDGET
    PRINT HEAD FOR ALL LAYERS
    PRINT BUDGET
 UBDSV1 SAVING "         STORAGE" ON UNIT  53 AT TIME STEP  5, STRESS PERIOD   2
 UBDSV2 SAVING "   CONSTANT HEAD" ON UNIT  53 AT TIME STEP  5, STRESS PERIOD   2
 UBDSV1 SAVING "FLOW RIGHT FACE " ON UNIT  53 AT TIME STEP  5, STRESS PERIOD   2
 UBDSV1 SAVING "FLOW FRONT FACE " ON UNIT  53 AT TIME STEP  5, STRESS PERIOD   2
1
              HEAD IN LAYER   1 AT END OF TIME STEP   5 IN STRESS PERIOD    2
  ---------------------------------------------------------------------------

            1           2           3           4           5           6           7           8           9          10
           11          12          13          14          15          16          17          18          19          20
 ........................................................................................................................
   1    9.990       9.507       9.019       8.528       8.032       7.532       7.028       6.519       6.006       5.488    
        4.965       4.437       3.903       3.365       2.821       2.271       1.715       1.154      0.5859      1.1554E-02
   2    9.990       9.507       9.019       8.528       8.032       7.532       7.028       6.519       6.006       5.488    
        4.965       4.437       3.903       3.365       2.821       2.271       1.715       1.154      0.5859      1.1554E-02
   3    9.990       9.507       9.019       8.528       8.032       7.532       7.028       6.519       6.006       5.488    
        4.965       4.437       3.903       3.365       2.821       2.271       1.715       1.154      0.5859      1.1554E-02
   4    9.990       9.507       9.019       8.528       8.032       7.532       7.028       6.519       6.006       5.488    
        4.965       4.437       3.903       3.365       2.821       2.271       1.715       1.154      0.5859      1.1554E-02
   5    9.990       9.507       9.019       8.528       8.032       7.532       7.028       6.519       6.006       5.488    
        4.965       4.437       3.903       3.365       2.821       2.271       1.715       1.154      0.5859      1.1554E-02
   6    9.990       9.507       9.019       8.528       8.032       7.532       7.028       6.519       6.006       5.488    
        4.965       4.437       3.903       3.365       2.821       2.271       1.715       1.154      0.5859      1.1554E-02
   7    9.990       9.507       9.019       8.528       8.032       7.532       7.028       6.519       6.006       5.488    
        4.965       4.437       3.903       3.365       2.821       2.271       1.715       1.154      0.5859      1.1554E-02
   8    9.990       9.507       9.019       8.528       8.032       7.532       7.028       6.519       6.006       5.488    
        4.965       4.437       3.903       3.365       2.821       2.271       1.715       1.154      0.5859      1.1554E-02
   9    9.990       9.507       9.019       8.528       8.032       7.532       7.028       6.519       6.006       5.488    
        4.965       4.437       3.903       3.365       2.821       2.271       1.715       1.154      0.5859      1.1554E-02
  10    9.990       9.507       9.019       8.528       8.032       7.532       7.028       6.519       6.006       5.488    
        4.965       4.437       3.903       3.365       2.821       2.271       1.715       1.154      0.5859      1.1554E-02

 HEAD WILL BE SAVED ON UNIT   51 AT END OF TIME STEP   5, STRESS PERIOD    2

 DRAWDOWN WILL BE SAVED ON UNIT   52 AT END OF TIME STEP   5, STRESS PERIOD    2
1
  VOLUMETRIC BUDGET FOR ENTIRE MODEL AT END OF TIME STEP  5 IN STRESS PERIOD   2
  ------------------------------------------------------------------------------

     CUMULATIVE VOLUMES      L**3       RATES FOR THIS TIME STEP      L**3/T
     ------------------                 ------------------------

           IN:                                      IN:
           ---                                      ---
             STORAGE =       1.2387E-02               STORAGE =       2.5253E-03
       CONSTANT HEAD =           0.0000         CONSTANT HEAD =           0.0000
               WELLS =           0.0000                 WELLS =           0.0000
     HEAD DEP BOUNDS =        3466.2249       HEAD DEP BOUNDS =         577.7015

            TOTAL IN =        3466.2373              TOTAL IN =         577.7040

          OUT:                                     OUT:
          ----                                     ----
             STORAGE =       7.9346E-03               STORAGE =       1.8311E-03
       CONSTANT HEAD =           0.0000         CONSTANT HEAD =           0.0000
               WELLS =           0.0000                 WELLS =           0.0000
     HEAD DEP BOUNDS =        3466.3152       HEAD DEP BOUNDS =         577.7195

           TOTAL OUT =        3466.3232             TOTAL OUT =         577.7213

            IN - OUT =      -8.5938E-02              IN - OUT =      -1.7334E-02

 PERCENT DISCREPANCY =           0.00     PERCENT DISCREPANCY =           0.00






          TIME SUMMARY AT END OF TIME STEP   5 IN STRESS PERIOD    2
                    SECONDS     MINUTES      HOURS       DAYS        YEARS
                    -----------------------------------------------------------
   TIME STEP LENGTH  86400.      1440.0      24.000      1.0000     2.73785E-03
 STRESS PERIOD TIME 4.32000E+05  7200.0      120.00      5.0000     1.36893E-02
         TOTAL TIME 5.18400E+05  8640.0      144.00      6.0000     1.64271E-02
1
 
 SOLVING FOR HEAD 

 OUTPUT CONTROL FOR STRESS PERIOD    2   TIME STEP   6
    SAVE HEAD FOR ALL LAYERS
    SAVE DRAWDOWN FOR ALL LAYERS
    SAVE BUDGET
    PRINT HEAD FOR ALL LAYERS
    PRINT BUDGET
 UBDSV1 SAVING "         STORAGE" ON UNIT  53 AT TIME STEP  6, STRESS PERIOD   2
 UBDSV2 SAVING "   CONSTANT HEAD" ON UNIT  53 AT TIME STEP  6, STRESS PERIOD   2
 UBDSV1 SAVING "FLOW RIGHT FACE " ON UNIT  53 AT TIME STEP  6, STRESS PERIOD   2
 UBDSV1 SAVING "FLOW FRONT FACE " ON UNIT  53 AT TIME STEP  6, STRESS PERIOD   2
1
              HEAD IN LAYER   1 AT END OF TIME STEP   6 IN STRESS PERIOD    2
  ---------------------------------------------------------------------------

            1           2           3           4           5           6           7           8           9          10
           11          12          13          14          15          16          17          18          19          20
 ........................................................................................................................
   1    9.990       9.507       9.019       8.528       8.032       7.532       7.028       6.519       6.006       5.488    
        4.965       4.437       3.903       3.365       2.821       2.271       1.715       1.154      0.5859      1.1554E-02
   2    9.990       9.507       9.019       8.528       8.032       7.532       7.028       6.519       6.006       5.488    
        4.965       4.437       3.903       3.365       2.821       2.271       1.715       1.154      0.5859      1.1554E-02
   3    9.990       9.507       9.019       8.528       8.032       7.532       7.028       6.519       6.006       5.488    
        4.965       4.437       3.903       3.365       2.821       2.271       1.715       1.154      0.5859      1.1554E-02
   4    9.990       9.507       9.019       8.528       8.032       7.532       7.028       6.519       6.006       5.488    
        4.965       4.437       3.903       3.365       2.821       2.271       1.715       1.154      0.5859      1.1554E-02
   5    9.990       9.507       9.019       8.528       8.032       7.532       7.028       6.519       6.006       5.488    
        4.965       4.437       3.903       3.365       2.821       2.271       1.715       1.154      0.5859      1.1554E-02
   6    9.990       9.507       9.019       8.528       8.032       7.532       7.028       6.519       6.006       5.488    
        4.965       4.437       3.903       3.365       2.821       2.271       1.715       1.154      0.5859      1.1554E-02
   7    9.990       9.507       9.019       8.528       8.032       7.532       7.028       6.519       6.006       5.488    
        4.965       4.437       3.903       3.365       2.821       2.271       1.715       1.154      0.5859      1.1554E-02
   8    9.990       9.507       9.019       8.528       8.032       7.532       7.028       6.519       6.006       5.488    
        4.965       4.437       3.903       3.365       2.821       2.271       1.715       1.154      0.5859      1.1554E-02
   9    9.990       9.507       9.019       8.528       8.032       7.532       7.028       6.519       6.006       5.488    
        4.965       4.437       3.903       3.365       2.821       2.271       1.715       1.154      0.5859      1.1554E-02
  10    9.990       9.507       9.019       8.528       8.032       7.532       7.028       6.519       6.006       5.488    
        4.965       4.437       3.903       3.365       2.821       2.271       1.715       1.154      0.5859      1.1554E-02

 HEAD WILL BE SAVED ON UNIT   51 AT END OF TIME STEP   6, STRESS PERIOD    2

 DRAWDOWN WILL BE SAVED ON UNIT   52 AT END OF TIME STEP   6, STRESS PERIOD    2
1
  VOLUMETRIC BUDGET FOR ENTIRE MODEL AT END OF TIME STEP  6 IN STRESS PERIOD   2
  ------------------------------------------------------------------------------

     CUMULATIVE VOLUMES      L**3       RATES FOR THIS TIME STEP      L**3/T
     ------------------                 ------------------------

           IN:                                      IN:
           ---                                      ---
             STORAGE =       1.4790E-02               STORAGE =       2.4033E-03
       CONSTANT HEAD =           0.0000         CONSTANT HEAD =           0.0000
               WELLS =           0.0000                 WELLS =           0.0000
     HEAD DEP BOUNDS =        4043.9263       HEAD DEP BOUNDS =         577.7015

            TOTAL IN =        4043.9412              TOTAL IN =         577.7039

          OUT:                                     OUT:
          ----                                     ----
             STORAGE =       9.7656E-03               STORAGE =       1.8311E-03
       CONSTANT HEAD =           0.0000         CONSTANT HEAD =           0.0000
               WELLS =           0.0000                 WELLS =           0.0000
     HEAD DEP BOUNDS =        4044.0347       HEAD DEP BOUNDS =         577.7195

           TOTAL OUT =        4044.0444             TOTAL OUT =         577.7213

            IN - OUT =          -0.1033              IN - OUT =      -1.7456E-02

 PERCENT DISCREPANCY =           0.00     PERCENT DISCREPANCY =           0.00






          TIME SUMMARY AT END OF TIME STEP   6 IN STRESS PERIOD    2
                    SECONDS     MINUTES      HOURS       DAYS        YEARS
                    -----------------------------------------------------------
   TIME STEP LENGTH  86400.      1440.0      24.000      1.0000     2.73785E-03
 STRESS PERIOD TIME 5.18400E+05  8640.0      144.00      6.0000     1.64271E-02
         TOTAL TIME 6.04800E+05  10080.      168.00      7.0000     1.91650E-02
1
 
 SOLVING FOR HEAD 

 OUTPUT CONTROL FOR STRESS PERIOD    2   TIME STEP   7
    SAVE HEAD FOR ALL LAYERS
    SAVE DRAWDOWN FOR ALL LAYERS
    SAVE BUDGET
    PRINT HEAD FOR ALL LAYERS
    PRINT BUDGET
 UBDSV1 SAVING "         STORAGE" ON UNIT  53 AT TIME STEP  7, STRESS PERIOD   2
 UBDSV2 SAVING "   CONSTANT HEAD" ON UNIT  53 AT TIME STEP  7, STRESS PERIOD   2
 UBDSV1 SAVING "FLOW RIGHT FACE " ON UNIT  53 AT TIME STEP  7, STRESS PERIOD   2
 UBDSV1 SAVING "FLOW FRONT FACE " ON UNIT  53 AT TIME STEP  7, STRESS PERIOD   2
1
              HEAD IN LAYER   1 AT END OF TIME STEP   7 IN STRESS PERIOD    2
  ---------------------------------------------------------------------------

            1           2           3           4           5           6           7           8           9          10
           11          12          13          14          15          16          17          18          19          20
 ........................................................................................................................
   1    9.990       9.507       9.019       8.528       8.032       7.532       7.028       6.519       6.006       5.488    
        4.965       4.437       3.903       3.365       2.821       2.271       1.715       1.154      0.5859      1.1554E-02
   2    9.990       9.507       9.019       8.528       8.032       7.532       7.028       6.519       6.006       5.488    
        4.965       4.437       3.903       3.365       2.821       2.271       1.715       1.154      0.5859      1.1554E-02
   3    9.990       9.507       9.019       8.528       8.032       7.532       7.028       6.519       6.006       5.488    
        4.965       4.437       3.903       3.365       2.821       2.271       1.715       1.154      0.5859      1.1554E-02
   4    9.990       9.507       9.019       8.528       8.032       7.532       7.028       6.519       6.006       5.488    
        4.965       4.437       3.903       3.365       2.821       2.271       1.715       1.154      0.5859      1.1554E-02
   5    9.990       9.507       9.019       8.528       8.032       7.532       7.028       6.519       6.006       5.488    
        4.965       4.437       3.903       3.365       2.821       2.271       1.715       1.154      0.5859      1.1554E-02
   6    9.990       9.507       9.019       8.528       8.032       7.532       7.028       6.519       6.006       5.488    
        4.965       4.437       3.903       3.365       2.821       2.271       1.715       1.154      0.5859      1.1554E-02
   7    9.990       9.507       9.019       8.528       8.032       7.532       7.028       6.519       6.006       5.488    
        4.965       4.437       3.903       3.365       2.821       2.271       1.715       1.154      0.5859      1.1554E-02
   8    9.990       9.507       9.019       8.528       8.032       7.532       7.028       6.519       6.006       5.488    
        4.965       4.437       3.903       3.365       2.821       2.271       1.715       1.154      0.5859      1.1554E-02
   9    9.990       9.507       9.019       8.528       8.032       7.532       7.028       6.519       6.006       5.488    
        4.965       4.437       3.903       3.365       2.821       2.271       1.715       1.154      0.5859      1.1554E-02
  10    9.990       9.507       9.019       8.528       8.032       7.532       7.028       6.519       6.006       5.488    
        4.965       4.437       3.903       3.365       2.821       2.271       1.715       1.154      0.5859      1.1554E-02

 HEAD WILL BE SAVED ON UNIT   51 AT END OF TIME STEP   7, STRESS PERIOD    2

 DRAWDOWN WILL BE SAVED ON UNIT   52 AT END OF TIME STEP   7, STRESS PERIOD    2
1
  VOLUMETRIC BUDGET FOR ENTIRE MODEL AT END OF TIME STEP  7 IN STRESS PERIOD   2
  ------------------------------------------------------------------------------

     CUMULATIVE VOLUMES      L**3       RATES FOR THIS TIME STEP      L**3/T
     ------------------                 ------------------------

           IN:                                      IN:
           ---                                      ---
             STORAGE =       1.7193E-02               STORAGE =       2.4033E-03
       CONSTANT HEAD =           0.0000         CONSTANT HEAD =           0.0000
               WELLS =           0.0000                 WELLS =           0.0000
     HEAD DEP BOUNDS =        4621.6279       HEAD DEP BOUNDS =         577.7015

            TOTAL IN =        4621.6450              TOTAL IN =         577.7039

          OUT:                                     OUT:
          ----                                     ----
             STORAGE =       1.1597E-02               STORAGE =       1.8311E-03
       CONSTANT HEAD =           0.0000         CONSTANT HEAD =           0.0000
               WELLS =           0.0000                 WELLS =           0.0000
     HEAD DEP BOUNDS =        4621.7539       HEAD DEP BOUNDS =         577.7195

           TOTAL OUT =        4621.7656             TOTAL OUT =         577.7213

            IN - OUT =          -0.1206              IN - OUT =      -1.7456E-02

 PERCENT DISCREPANCY =           0.00     PERCENT DISCREPANCY =           0.00






          TIME SUMMARY AT END OF TIME STEP   7 IN STRESS PERIOD    2
                    SECONDS     MINUTES      HOURS       DAYS        YEARS
                    -----------------------------------------------------------
   TIME STEP LENGTH  86400.      1440.0      24.000      1.0000     2.73785E-03
 STRESS PERIOD TIME 6.04800E+05  10080.      168.00      7.0000     1.91650E-02
         TOTAL TIME 6.91200E+05  11520.      192.00      8.0000     2.19028E-02
1
 
 SOLVING FOR HEAD 

 OUTPUT CONTROL FOR STRESS PERIOD    2   TIME STEP   8
    SAVE HEAD FOR ALL LAYERS
    SAVE DRAWDOWN FOR ALL LAYERS
    SAVE BUDGET
    PRINT HEAD FOR ALL LAYERS
    PRINT BUDGET
 UBDSV1 SAVING "         STORAGE" ON UNIT  53 AT TIME STEP  8, STRESS PERIOD   2
 UBDSV2 SAVING "   CONSTANT HEAD" ON UNIT  53 AT TIME STEP  8, STRESS PERIOD   2
 UBDSV1 SAVING "FLOW RIGHT FACE " ON UNIT  53 AT TIME STEP  8, STRESS PERIOD   2
 UBDSV1 SAVING "FLOW FRONT FACE " ON UNIT  53 AT TIME STEP  8, STRESS PERIOD   2
1
              HEAD IN LAYER   1 AT END OF TIME STEP   8 IN STRESS PERIOD    2
  ---------------------------------------------------------------------------

            1           2           3           4           5           6           7           8           9          10
           11          12          13          14          15          16          17          18          19          20
 ........................................................................................................................
   1    9.990       9.507       9.019       8.528       8.032       7.532       7.028       6.519       6.006       5.488    
        4.965       4.437       3.903       3.365       2.821       2.271       1.715       1.154      0.5859      1.1554E-02
   2    9.990       9.507       9.019       8.528       8.032       7.532       7.028       6.519       6.006       5.488    
        4.965       4.437       3.903       3.365       2.821       2.271       1.715       1.154      0.5859      1.1554E-02
   3    9.990       9.507       9.019       8.528       8.032       7.532       7.028       6.519       6.006       5.488    
        4.965       4.437       3.903       3.365       2.821       2.271       1.715       1.154      0.5859      1.1554E-02
   4    9.990       9.507       9.019       8.528       8.032       7.532       7.028       6.519       6.006       5.488    
        4.965       4.437       3.903       3.365       2.821       2.271       1.715       1.154      0.5859      1.1554E-02
   5    9.990       9.507       9.019       8.528       8.032       7.532       7.028       6.519       6.006       5.488    
        4.965       4.437       3.903       3.365       2.821       2.271       1.715       1.154      0.5859      1.1554E-02
   6    9.990       9.507       9.019       8.528       8.032       7.532       7.028       6.519       6.006       5.488    
        4.965       4.437       3.903       3.365       2.821       2.271       1.715       1.154      0.5859      1.1554E-02
   7    9.990       9.507       9.019       8.528       8.032       7.532       7.028       6.519       6.006       5.488    
        4.965       4.437       3.903       3.365       2.821       2.271       1.715       1.154      0.5859      1.1554E-02
   8    9.990       9.507       9.019       8.528       8.032       7.532       7.028       6.519       6.006       5.488    
        4.965       4.437       3.903       3.365       2.821       2.271       1.715       1.154      0.5859      1.1554E-02
   9    9.990       9.507       9.019       8.528       8.032       7.532       7.028       6.519       6.006       5.488    
        4.965       4.437       3.903       3.365       2.821       2.271       1.715       1.154      0.5859      1.1554E-02
  10    9.990       9.507       9.019       8.528       8.032       7.532       7.028       6.519       6.006       5.488    
        4.965       4.437       3.903       3.365       2.821       2.271       1.715       1.154      0.5859      1.1554E-02

 HEAD WILL BE SAVED ON UNIT   51 AT END OF TIME STEP   8, STRESS PERIOD    2

 DRAWDOWN WILL BE SAVED ON UNIT   52 AT END OF TIME STEP   8, STRESS PERIOD    2
1
  VOLUMETRIC BUDGET FOR ENTIRE MODEL AT END OF TIME STEP  8 IN STRESS PERIOD   2
  ------------------------------------------------------------------------------

     CUMULATIVE VOLUMES      L**3       RATES FOR THIS TIME STEP      L**3/T
     ------------------                 ------------------------

           IN:                                      IN:
           ---                                      ---
             STORAGE =       1.9597E-02               STORAGE =       2.4033E-03
       CONSTANT HEAD =           0.0000         CONSTANT HEAD =           0.0000
               WELLS =           0.0000                 WELLS =           0.0000
     HEAD DEP BOUNDS =        5199.3296       HEAD DEP BOUNDS =         577.7015

            TOTAL IN =        5199.3491              TOTAL IN =         577.7039

          OUT:                                     OUT:
          ----                                     ----
             STORAGE =       1.3428E-02               STORAGE =       1.8311E-03
       CONSTANT HEAD =           0.0000         CONSTANT HEAD =           0.0000
               WELLS =           0.0000                 WELLS =           0.0000
     HEAD DEP BOUNDS =        5199.4736       HEAD DEP BOUNDS =         577.7195

           TOTAL OUT =        5199.4873             TOTAL OUT =         577.7213

            IN - OUT =          -0.1382              IN - OUT =      -1.7456E-02

 PERCENT DISCREPANCY =           0.00     PERCENT DISCREPANCY =           0.00






          TIME SUMMARY AT END OF TIME STEP   8 IN STRESS PERIOD    2
                    SECONDS     MINUTES      HOURS       DAYS        YEARS
                    -----------------------------------------------------------
   TIME STEP LENGTH  86400.      1440.0      24.000      1.0000     2.73785E-03
 STRESS PERIOD TIME 6.91200E+05  11520.      192.00      8.0000     2.19028E-02
         TOTAL TIME 7.77600E+05  12960.      216.00      9.0000     2.46407E-02
1
 
 SOLVING FOR HEAD 

 OUTPUT CONTROL FOR STRESS PERIOD    2   TIME STEP   9
    SAVE HEAD FOR ALL LAYERS
    SAVE DRAWDOWN FOR ALL LAYERS
    SAVE BUDGET
    PRINT HEAD FOR ALL LAYERS
    PRINT BUDGET
 UBDSV1 SAVING "         STORAGE" ON UNIT  53 AT TIME STEP  9, STRESS PERIOD   2
 UBDSV2 SAVING "   CONSTANT HEAD" ON UNIT  53 AT TIME STEP  9, STRESS PERIOD   2
 UBDSV1 SAVING "FLOW RIGHT FACE " ON UNIT  53 AT TIME STEP  9, STRESS PERIOD   2
 UBDSV1 SAVING "FLOW FRONT FACE " ON UNIT  53 AT TIME STEP  9, STRESS PERIOD   2
1
              HEAD IN LAYER   1 AT END OF TIME STEP   9 IN STRESS PERIOD    2
  ---------------------------------------------------------------------------

            1           2           3           4           5           6           7           8           9          10
           11          12          13          14          15          16          17          18          19          20
 ........................................................................................................................
   1    9.990       9.507       9.019       8.528       8.032       7.532       7.028       6.519       6.006       5.488    
        4.965       4.437       3.903       3.365       2.821       2.271       1.715       1.154      0.5859      1.1554E-02
   2    9.990       9.507       9.019       8.528       8.032       7.532       7.028       6.519       6.006       5.488    
        4.965       4.437       3.903       3.365       2.821       2.271       1.715       1.154      0.5859      1.1554E-02
   3    9.990       9.507       9.019       8.528       8.032       7.532       7.028       6.519       6.006       5.488    
        4.965       4.437       3.903       3.365       2.821       2.271       1.715       1.154      0.5859      1.1554E-02
   4    9.990       9.507       9.019       8.528       8.032       7.532       7.028       6.519       6.006       5.488    
        4.965       4.437       3.903       3.365       2.821       2.271       1.715       1.154      0.5859      1.1554E-02
   5    9.990       9.507       9.019       8.528       8.032       7.532       7.028       6.519       6.006       5.488    
        4.965       4.437       3.903       3.365       2.821       2.271       1.715       1.154      0.5859      1.1554E-02
   6    9.990       9.507       9.019       8.528       8.032       7.532       7.028       6.519       6.006       5.488    
        4.965       4.437       3.903       3.365       2.821       2.271       1.715       1.154      0.5859      1.1554E-02
   7    9.990       9.507       9.019       8.528       8.032       7.532       7.028       6.519       6.006       5.488    
        4.965       4.437       3.903       3.365       2.821       2.271       1.715       1.154      0.5859      1.1554E-02
   8    9.990       9.507       9.019       8.528       8.032       7.532       7.028       6.519       6.006       5.488    
        4.965       4.437       3.903       3.365       2.821       2.271       1.715       1.154      0.5859      1.1554E-02
   9    9.990       9.507       9.019       8.528       8.032       7.532       7.028       6.519       6.006       5.488    
        4.965       4.437       3.903       3.365       2.821       2.271       1.715       1.154      0.5859      1.1554E-02
  10    9.990       9.507       9.019       8.528       8.032       7.532       7.028       6.519       6.006       5.488    
        4.965       4.437       3.903       3.365       2.821       2.271       1.715       1.154      0.5859      1.1554E-02

 HEAD WILL BE SAVED ON UNIT   51 AT END OF TIME STEP   9, STRESS PERIOD    2

 DRAWDOWN WILL BE SAVED ON UNIT   52 AT END OF TIME STEP   9, STRESS PERIOD    2
1
  VOLUMETRIC BUDGET FOR ENTIRE MODEL AT END OF TIME STEP  9 IN STRESS PERIOD   2
  ------------------------------------------------------------------------------

     CUMULATIVE VOLUMES      L**3       RATES FOR THIS TIME STEP      L**3/T
     ------------------                 ------------------------

           IN:                                      IN:
           ---                                      ---
             STORAGE =       2.2000E-02               STORAGE =       2.4033E-03
       CONSTANT HEAD =           0.0000         CONSTANT HEAD =           0.0000
               WELLS =           0.0000                 WELLS =           0.0000
     HEAD DEP BOUNDS =        5777.0312       HEAD DEP BOUNDS =         577.7015

            TOTAL IN =        5777.0532              TOTAL IN =         577.7039

          OUT:                                     OUT:
          ----                                     ----
             STORAGE =       1.5259E-02               STORAGE =       1.8311E-03
       CONSTANT HEAD =           0.0000         CONSTANT HEAD =           0.0000
               WELLS =           0.0000                 WELLS =           0.0000
     HEAD DEP BOUNDS =        5777.1934       HEAD DEP BOUNDS =         577.7195

           TOTAL OUT =        5777.2085             TOTAL OUT =         577.7213

            IN - OUT =          -0.1553              IN - OUT =      -1.7456E-02

 PERCENT DISCREPANCY =           0.00     PERCENT DISCREPANCY =           0.00






          TIME SUMMARY AT END OF TIME STEP   9 IN STRESS PERIOD    2
                    SECONDS     MINUTES      HOURS       DAYS        YEARS
                    -----------------------------------------------------------
   TIME STEP LENGTH  86400.      1440.0      24.000      1.0000     2.73785E-03
 STRESS PERIOD TIME 7.77600E+05  12960.      216.00      9.0000     2.46407E-02
         TOTAL TIME 8.64000E+05  14400.      240.00      10.000     2.73785E-02
1
 
 SOLVING FOR HEAD 

 OUTPUT CONTROL FOR STRESS PERIOD    2   TIME STEP  10
    SAVE HEAD FOR ALL LAYERS
    SAVE DRAWDOWN FOR ALL LAYERS
    SAVE BUDGET
    PRINT HEAD FOR ALL LAYERS
    PRINT BUDGET
 UBDSV1 SAVING "         STORAGE" ON UNIT  53 AT TIME STEP 10, STRESS PERIOD   2
 UBDSV2 SAVING "   CONSTANT HEAD" ON UNIT  53 AT TIME STEP 10, STRESS PERIOD   2
 UBDSV1 SAVING "FLOW RIGHT FACE " ON UNIT  53 AT TIME STEP 10, STRESS PERIOD   2
 UBDSV1 SAVING "FLOW FRONT FACE " ON UNIT  53 AT TIME STEP 10, STRESS PERIOD   2
1
              HEAD IN LAYER   1 AT END OF TIME STEP  10 IN STRESS PERIOD    2
  ---------------------------------------------------------------------------

            1           2           3           4           5           6           7           8           9          10
           11          12          13          14          15          16          17          18          19          20
 ........................................................................................................................
   1    9.990       9.507       9.019       8.528       8.032       7.532       7.028       6.519       6.006       5.488    
        4.965       4.437       3.903       3.365       2.821       2.271       1.715       1.154      0.5859      1.1554E-02
   2    9.990       9.507       9.019       8.528       8.032       7.532       7.028       6.519       6.006       5.488    
        4.965       4.437       3.903       3.365       2.821       2.271       1.715       1.154      0.5859      1.1554E-02
   3    9.990       9.507       9.019       8.528       8.032       7.532       7.028       6.519       6.006       5.488    
        4.965       4.437       3.903       3.365       2.821       2.271       1.715       1.154      0.5859      1.1554E-02
   4    9.990       9.507       9.019       8.528       8.032       7.532       7.028       6.519       6.006       5.488    
        4.965       4.437       3.903       3.365       2.821       2.271       1.715       1.154      0.5859      1.1554E-02
   5    9.990       9.507       9.019       8.528       8.032       7.532       7.028       6.519       6.006       5.488    
        4.965       4.437       3.903       3.365       2.821       2.271       1.715       1.154      0.5859      1.1554E-02
   6    9.990       9.507       9.019       8.528       8.032       7.532       7.028       6.519       6.006       5.488    
        4.965       4.437       3.903       3.365       2.821       2.271       1.715       1.154      0.5859      1.1554E-02
   7    9.990       9.507       9.019       8.528       8.032       7.532       7.028       6.519       6.006       5.488    
        4.965       4.437       3.903       3.365       2.821       2.271       1.715       1.154      0.5859      1.1554E-02
   8    9.990       9.507       9.019       8.528       8.032       7.532       7.028       6.519       6.006       5.488    
        4.965       4.437       3.903       3.365       2.821       2.271       1.715       1.154      0.5859      1.1554E-02
   9    9.990       9.507       9.019       8.528       8.032       7.532       7.028       6.519       6.006       5.488    
        4.965       4.437       3.903       3.365       2.821       2.271       1.715       1.154      0.5859      1.1554E-02
  10    9.990       9.507       9.019       8.528       8.032       7.532       7.028       6.519       6.006       5.488    
        4.965       4.437       3.903       3.365       2.821       2.271       1.715       1.154      0.5859      1.1554E-02

 HEAD WILL BE SAVED ON UNIT   51 AT END OF TIME STEP  10, STRESS PERIOD    2

 DRAWDOWN WILL BE SAVED ON UNIT   52 AT END OF TIME STEP  10, STRESS PERIOD    2
1
  VOLUMETRIC BUDGET FOR ENTIRE MODEL AT END OF TIME STEP 10 IN STRESS PERIOD   2
  ------------------------------------------------------------------------------

     CUMULATIVE VOLUMES      L**3       RATES FOR THIS TIME STEP      L**3/T
     ------------------                 ------------------------

           IN:                                      IN:
           ---                                      ---
             STORAGE =       2.4403E-02               STORAGE =       2.4033E-03
       CONSTANT HEAD =           0.0000         CONSTANT HEAD =           0.0000
               WELLS =           0.0000                 WELLS =           0.0000
     HEAD DEP BOUNDS =        6354.7329       HEAD DEP BOUNDS =         577.7015

            TOTAL IN =        6354.7573              TOTAL IN =         577.7039

          OUT:                                     OUT:
          ----                                     ----
             STORAGE =       1.7090E-02               STORAGE =       1.8311E-03
       CONSTANT HEAD =           0.0000         CONSTANT HEAD =           0.0000
               WELLS =           0.0000                 WELLS =           0.0000
     HEAD DEP BOUNDS =        6354.9131       HEAD DEP BOUNDS =         577.7195

           TOTAL OUT =        6354.9302             TOTAL OUT =         577.7213

            IN - OUT =          -0.1729              IN - OUT =      -1.7456E-02

 PERCENT DISCREPANCY =           0.00     PERCENT DISCREPANCY =           0.00






          TIME SUMMARY AT END OF TIME STEP  10 IN STRESS PERIOD    2
                    SECONDS     MINUTES      HOURS       DAYS        YEARS
                    -----------------------------------------------------------
   TIME STEP LENGTH  86400.      1440.0      24.000      1.0000     2.73785E-03
 STRESS PERIOD TIME 8.64000E+05  14400.      240.00      10.000     2.73785E-02
         TOTAL TIME 9.50400E+05  15840.      264.00      11.000     3.01164E-02
1
 
 SOLVING FOR HEAD 

 OUTPUT CONTROL FOR STRESS PERIOD    2   TIME STEP  11
    SAVE HEAD FOR ALL LAYERS
    SAVE DRAWDOWN FOR ALL LAYERS
    SAVE BUDGET
    PRINT HEAD FOR ALL LAYERS
    PRINT BUDGET
 UBDSV1 SAVING "         STORAGE" ON UNIT  53 AT TIME STEP 11, STRESS PERIOD   2
 UBDSV2 SAVING "   CONSTANT HEAD" ON UNIT  53 AT TIME STEP 11, STRESS PERIOD   2
 UBDSV1 SAVING "FLOW RIGHT FACE " ON UNIT  53 AT TIME STEP 11, STRESS PERIOD   2
 UBDSV1 SAVING "FLOW FRONT FACE " ON UNIT  53 AT TIME STEP 11, STRESS PERIOD   2
1
              HEAD IN LAYER   1 AT END OF TIME STEP  11 IN STRESS PERIOD    2
  ---------------------------------------------------------------------------

            1           2           3           4           5           6           7           8           9          10
           11          12          13          14          15          16          17          18          19          20
 ........................................................................................................................
   1    9.990       9.507       9.019       8.528       8.032       7.532       7.028       6.519       6.006       5.488    
        4.965       4.437       3.903       3.365       2.821       2.271       1.715       1.154      0.5859      1.1554E-02
   2    9.990       9.507       9.019       8.528       8.032       7.532       7.028       6.519       6.006       5.488    
        4.965       4.437       3.903       3.365       2.821       2.271       1.715       1.154      0.5859      1.1554E-02
   3    9.990       9.507       9.019       8.528       8.032       7.532       7.028       6.519       6.006       5.488    
        4.965       4.437       3.903       3.365       2.821       2.271       1.715       1.154      0.5859      1.1554E-02
   4    9.990       9.507       9.019       8.528       8.032       7.532       7.028       6.519       6.006       5.488    
        4.965       4.437       3.903       3.365       2.821       2.271       1.715       1.154      0.5859      1.1554E-02
   5    9.990       9.507       9.019       8.528       8.032       7.532       7.028       6.519       6.006       5.488    
        4.965       4.437       3.903       3.365       2.821       2.271       1.715       1.154      0.5859      1.1554E-02
   6    9.990       9.507       9.019       8.528       8.032       7.532       7.028       6.519       6.006       5.488    
        4.965       4.437       3.903       3.365       2.821       2.271       1.715       1.154      0.5859      1.1554E-02
   7    9.990       9.507       9.019       8.528       8.032       7.532       7.028       6.519       6.006       5.488    
        4.965       4.437       3.903       3.365       2.821       2.271       1.715       1.154      0.5859      1.1554E-02
   8    9.990       9.507       9.019       8.528       8.032       7.532       7.028       6.519       6.006       5.488    
        4.965       4.437       3.903       3.365       2.821       2.271       1.715       1.154      0.5859      1.1554E-02
   9    9.990       9.507       9.019       8.528       8.032       7.532       7.028       6.519       6.006       5.488    
        4.965       4.437       3.903       3.365       2.821       2.271       1.715       1.154      0.5859      1.1554E-02
  10    9.990       9.507       9.019       8.528       8.032       7.532       7.028       6.519       6.006       5.488    
        4.965       4.437       3.903       3.365       2.821       2.271       1.715       1.154      0.5859      1.1554E-02

 HEAD WILL BE SAVED ON UNIT   51 AT END OF TIME STEP  11, STRESS PERIOD    2

 DRAWDOWN WILL BE SAVED ON UNIT   52 AT END OF TIME STEP  11, STRESS PERIOD    2
1
  VOLUMETRIC BUDGET FOR ENTIRE MODEL AT END OF TIME STEP 11 IN STRESS PERIOD   2
  ------------------------------------------------------------------------------

     CUMULATIVE VOLUMES      L**3       RATES FOR THIS TIME STEP      L**3/T
     ------------------                 ------------------------

           IN:                                      IN:
           ---                                      ---
             STORAGE =       2.6806E-02               STORAGE =       2.4033E-03
       CONSTANT HEAD =           0.0000         CONSTANT HEAD =           0.0000
               WELLS =           0.0000                 WELLS =           0.0000
     HEAD DEP BOUNDS =        6932.4346       HEAD DEP BOUNDS =         577.7015

            TOTAL IN =        6932.4614              TOTAL IN =         577.7039

          OUT:                                     OUT:
          ----                                     ----
             STORAGE =       1.8921E-02               STORAGE =       1.8311E-03
       CONSTANT HEAD =           0.0000         CONSTANT HEAD =           0.0000
               WELLS =           0.0000                 WELLS =           0.0000
     HEAD DEP BOUNDS =        6932.6328       HEAD DEP BOUNDS =         577.7195

           TOTAL OUT =        6932.6519             TOTAL OUT =         577.7213

            IN - OUT =          -0.1904              IN - OUT =      -1.7456E-02

 PERCENT DISCREPANCY =           0.00     PERCENT DISCREPANCY =           0.00






          TIME SUMMARY AT END OF TIME STEP  11 IN STRESS PERIOD    2
                    SECONDS     MINUTES      HOURS       DAYS        YEARS
                    -----------------------------------------------------------
   TIME STEP LENGTH  86400.      1440.0      24.000      1.0000     2.73785E-03
 STRESS PERIOD TIME 9.50400E+05  15840.      264.00      11.000     3.01164E-02
         TOTAL TIME 1.03680E+06  17280.      288.00      12.000     3.28542E-02
1
 
 SOLVING FOR HEAD 

 OUTPUT CONTROL FOR STRESS PERIOD    2   TIME STEP  12
    SAVE HEAD FOR ALL LAYERS
    SAVE DRAWDOWN FOR ALL LAYERS
    SAVE BUDGET
    PRINT HEAD FOR ALL LAYERS
    PRINT BUDGET
 UBDSV1 SAVING "         STORAGE" ON UNIT  53 AT TIME STEP 12, STRESS PERIOD   2
 UBDSV2 SAVING "   CONSTANT HEAD" ON UNIT  53 AT TIME STEP 12, STRESS PERIOD   2
 UBDSV1 SAVING "FLOW RIGHT FACE " ON UNIT  53 AT TIME STEP 12, STRESS PERIOD   2
 UBDSV1 SAVING "FLOW FRONT FACE " ON UNIT  53 AT TIME STEP 12, STRESS PERIOD   2
1
              HEAD IN LAYER   1 AT END OF TIME STEP  12 IN STRESS PERIOD    2
  ---------------------------------------------------------------------------

            1           2           3           4           5           6           7           8           9          10
           11          12          13          14          15          16          17          18          19          20
 ........................................................................................................................
   1    9.990       9.507       9.019       8.528       8.032       7.532       7.028       6.519       6.006       5.488    
        4.965       4.437       3.903       3.365       2.821       2.271       1.715       1.154      0.5859      1.1554E-02
   2    9.990       9.507       9.019       8.528       8.032       7.532       7.028       6.519       6.006       5.488    
        4.965       4.437       3.903       3.365       2.821       2.271       1.715       1.154      0.5859      1.1554E-02
   3    9.990       9.507       9.019       8.528       8.032       7.532       7.028       6.519       6.006       5.488    
        4.965       4.437       3.903       3.365       2.821       2.271       1.715       1.154      0.5859      1.1554E-02
   4    9.990       9.507       9.019       8.528       8.032       7.532       7.028       6.519       6.006       5.488    
        4.965       4.437       3.903       3.365       2.821       2.271       1.715       1.154      0.5859      1.1554E-02
   5    9.990       9.507       9.019       8.528       8.032       7.532       7.028       6.519       6.006       5.488    
        4.965       4.437       3.903       3.365       2.821       2.271       1.715       1.154      0.5859      1.1554E-02
   6    9.990       9.507       9.019       8.528       8.032       7.532       7.028       6.519       6.006       5.488    
        4.965       4.437       3.903       3.365       2.821       2.271       1.715       1.154      0.5859      1.1554E-02
   7    9.990       9.507       9.019       8.528       8.032       7.532       7.028       6.519       6.006       5.488    
        4.965       4.437       3.903       3.365       2.821       2.271       1.715       1.154      0.5859      1.1554E-02
   8    9.990       9.507       9.019       8.528       8.032       7.532       7.028       6.519       6.006       5.488    
        4.965       4.437       3.903       3.365       2.821       2.271       1.715       1.154      0.5859      1.1554E-02
   9    9.990       9.507       9.019       8.528       8.032       7.532       7.028       6.519       6.006       5.488    
        4.965       4.437       3.903       3.365       2.821       2.271       1.715       1.154      0.5859      1.1554E-02
  10    9.990       9.507       9.019       8.528       8.032       7.532       7.028       6.519       6.006       5.488    
        4.965       4.437       3.903       3.365       2.821       2.271       1.715       1.154      0.5859      1.1554E-02

 HEAD WILL BE SAVED ON UNIT   51 AT END OF TIME STEP  12, STRESS PERIOD    2

 DRAWDOWN WILL BE SAVED ON UNIT   52 AT END OF TIME STEP  12, STRESS PERIOD    2
1
  VOLUMETRIC BUDGET FOR ENTIRE MODEL AT END OF TIME STEP 12 IN STRESS PERIOD   2
  ------------------------------------------------------------------------------

     CUMULATIVE VOLUMES      L**3       RATES FOR THIS TIME STEP      L**3/T
     ------------------                 ------------------------

           IN:                                      IN:
           ---                                      ---
             STORAGE =       2.9210E-02               STORAGE =       2.4033E-03
       CONSTANT HEAD =           0.0000         CONSTANT HEAD =           0.0000
               WELLS =           0.0000                 WELLS =           0.0000
     HEAD DEP BOUNDS =        7510.1362       HEAD DEP BOUNDS =         577.7015

            TOTAL IN =        7510.1655              TOTAL IN =         577.7039

          OUT:                                     OUT:
          ----                                     ----
             STORAGE =       2.0752E-02               STORAGE =       1.8311E-03
       CONSTANT HEAD =           0.0000         CONSTANT HEAD =           0.0000
               WELLS =           0.0000                 WELLS =           0.0000
     HEAD DEP BOUNDS =        7510.3525       HEAD DEP BOUNDS =         577.7195

           TOTAL OUT =        7510.3730             TOTAL OUT =         577.7213

            IN - OUT =          -0.2075              IN - OUT =      -1.7456E-02

 PERCENT DISCREPANCY =           0.00     PERCENT DISCREPANCY =           0.00






          TIME SUMMARY AT END OF TIME STEP  12 IN STRESS PERIOD    2
                    SECONDS     MINUTES      HOURS       DAYS        YEARS
                    -----------------------------------------------------------
   TIME STEP LENGTH  86400.      1440.0      24.000      1.0000     2.73785E-03
 STRESS PERIOD TIME 1.03680E+06  17280.      288.00      12.000     3.28542E-02
         TOTAL TIME 1.12320E+06  18720.      312.00      13.000     3.55921E-02
1
 
 SOLVING FOR HEAD 

 OUTPUT CONTROL FOR STRESS PERIOD    2   TIME STEP  13
    SAVE HEAD FOR ALL LAYERS
    SAVE DRAWDOWN FOR ALL LAYERS
    SAVE BUDGET
    PRINT HEAD FOR ALL LAYERS
    PRINT BUDGET
 UBDSV1 SAVING "         STORAGE" ON UNIT  53 AT TIME STEP 13, STRESS PERIOD   2
 UBDSV2 SAVING "   CONSTANT HEAD" ON UNIT  53 AT TIME STEP 13, STRESS PERIOD   2
 UBDSV1 SAVING "FLOW RIGHT FACE " ON UNIT  53 AT TIME STEP 13, STRESS PERIOD   2
 UBDSV1 SAVING "FLOW FRONT FACE " ON UNIT  53 AT TIME STEP 13, STRESS PERIOD   2
1
              HEAD IN LAYER   1 AT END OF TIME STEP  13 IN STRESS PERIOD    2
  ---------------------------------------------------------------------------

            1           2           3           4           5           6           7           8           9          10
           11          12          13          14          15          16          17          18          19          20
 ........................................................................................................................
   1    9.990       9.507       9.019       8.528       8.032       7.532       7.028       6.519       6.006       5.488    
        4.965       4.437       3.903       3.365       2.821       2.271       1.715       1.154      0.5859      1.1554E-02
   2    9.990       9.507       9.019       8.528       8.032       7.532       7.028       6.519       6.006       5.488    
        4.965       4.437       3.903       3.365       2.821       2.271       1.715       1.154      0.5859      1.1554E-02
   3    9.990       9.507       9.019       8.528       8.032       7.532       7.028       6.519       6.006       5.488    
        4.965       4.437       3.903       3.365       2.821       2.271       1.715       1.154      0.5859      1.1554E-02
   4    9.990       9.507       9.019       8.528       8.032       7.532       7.028       6.519       6.006       5.488    
        4.965       4.437       3.903       3.365       2.821       2.271       1.715       1.154      0.5859      1.1554E-02
   5    9.990       9.507       9.019       8.528       8.032       7.532       7.028       6.519       6.006       5.488    
        4.965       4.437       3.903       3.365       2.821       2.271       1.715       1.154      0.5859      1.1554E-02
   6    9.990       9.507       9.019       8.528       8.032       7.532       7.028       6.519       6.006       5.488    
        4.965       4.437       3.903       3.365       2.821       2.271       1.715       1.154      0.5859      1.1554E-02
   7    9.990       9.507       9.019       8.528       8.032       7.532       7.028       6.519       6.006       5.488    
        4.965       4.437       3.903       3.365       2.821       2.271       1.715       1.154      0.5859      1.1554E-02
   8    9.990       9.507       9.019       8.528       8.032       7.532       7.028       6.519       6.006       5.488    
        4.965       4.437       3.903       3.365       2.821       2.271       1.715       1.154      0.5859      1.1554E-02
   9    9.990       9.507       9.019       8.528       8.032       7.532       7.028       6.519       6.006       5.488    
        4.965       4.437       3.903       3.365       2.821       2.271       1.715       1.154      0.5859      1.1554E-02
  10    9.990       9.507       9.019       8.528       8.032       7.532       7.028       6.519       6.006       5.488    
        4.965       4.437       3.903       3.365       2.821       2.271       1.715       1.154      0.5859      1.1554E-02

 HEAD WILL BE SAVED ON UNIT   51 AT END OF TIME STEP  13, STRESS PERIOD    2

 DRAWDOWN WILL BE SAVED ON UNIT   52 AT END OF TIME STEP  13, STRESS PERIOD    2
1
  VOLUMETRIC BUDGET FOR ENTIRE MODEL AT END OF TIME STEP 13 IN STRESS PERIOD   2
  ------------------------------------------------------------------------------

     CUMULATIVE VOLUMES      L**3       RATES FOR THIS TIME STEP      L**3/T
     ------------------                 ------------------------

           IN:                                      IN:
           ---                                      ---
             STORAGE =       3.1613E-02               STORAGE =       2.4033E-03
       CONSTANT HEAD =           0.0000         CONSTANT HEAD =           0.0000
               WELLS =           0.0000                 WELLS =           0.0000
     HEAD DEP BOUNDS =        8087.8379       HEAD DEP BOUNDS =         577.7015

            TOTAL IN =        8087.8696              TOTAL IN =         577.7039

          OUT:                                     OUT:
          ----                                     ----
             STORAGE =       2.2583E-02               STORAGE =       1.8311E-03
       CONSTANT HEAD =           0.0000         CONSTANT HEAD =           0.0000
               WELLS =           0.0000                 WELLS =           0.0000
     HEAD DEP BOUNDS =        8088.0723       HEAD DEP BOUNDS =         577.7195

           TOTAL OUT =        8088.0947             TOTAL OUT =         577.7213

            IN - OUT =          -0.2251              IN - OUT =      -1.7456E-02

 PERCENT DISCREPANCY =           0.00     PERCENT DISCREPANCY =           0.00






          TIME SUMMARY AT END OF TIME STEP  13 IN STRESS PERIOD    2
                    SECONDS     MINUTES      HOURS       DAYS        YEARS
                    -----------------------------------------------------------
   TIME STEP LENGTH  86400.      1440.0      24.000      1.0000     2.73785E-03
 STRESS PERIOD TIME 1.12320E+06  18720.      312.00      13.000     3.55921E-02
         TOTAL TIME 1.20960E+06  20160.      336.00      14.000     3.83299E-02
1
 
 SOLVING FOR HEAD 

 OUTPUT CONTROL FOR STRESS PERIOD    2   TIME STEP  14
    SAVE HEAD FOR ALL LAYERS
    SAVE DRAWDOWN FOR ALL LAYERS
    SAVE BUDGET
    PRINT HEAD FOR ALL LAYERS
    PRINT BUDGET
 UBDSV1 SAVING "         STORAGE" ON UNIT  53 AT TIME STEP 14, STRESS PERIOD   2
 UBDSV2 SAVING "   CONSTANT HEAD" ON UNIT  53 AT TIME STEP 14, STRESS PERIOD   2
 UBDSV1 SAVING "FLOW RIGHT FACE " ON UNIT  53 AT TIME STEP 14, STRESS PERIOD   2
 UBDSV1 SAVING "FLOW FRONT FACE " ON UNIT  53 AT TIME STEP 14, STRESS PERIOD   2
1
              HEAD IN LAYER   1 AT END OF TIME STEP  14 IN STRESS PERIOD    2
  ---------------------------------------------------------------------------

            1           2           3           4           5           6           7           8           9          10
           11          12          13          14          15          16          17          18          19          20
 ........................................................................................................................
   1    9.990       9.507       9.019       8.528       8.032       7.532       7.028       6.519       6.006       5.488    
        4.965       4.437       3.903       3.365       2.821       2.271       1.715       1.154      0.5859      1.1554E-02
   2    9.990       9.507       9.019       8.528       8.032       7.532       7.028       6.519       6.006       5.488    
        4.965       4.437       3.903       3.365       2.821       2.271       1.715       1.154      0.5859      1.1554E-02
   3    9.990       9.507       9.019       8.528       8.032       7.532       7.028       6.519       6.006       5.488    
        4.965       4.437       3.903       3.365       2.821       2.271       1.715       1.154      0.5859      1.1554E-02
   4    9.990       9.507       9.019       8.528       8.032       7.532       7.028       6.519       6.006       5.488    
        4.965       4.437       3.903       3.365       2.821       2.271       1.715       1.154      0.5859      1.1554E-02
   5    9.990       9.507       9.019       8.528       8.032       7.532       7.028       6.519       6.006       5.488    
        4.965       4.437       3.903       3.365       2.821       2.271       1.715       1.154      0.5859      1.1554E-02
   6    9.990       9.507       9.019       8.528       8.032       7.532       7.028       6.519       6.006       5.488    
        4.965       4.437       3.903       3.365       2.821       2.271       1.715       1.154      0.5859      1.1554E-02
   7    9.990       9.507       9.019       8.528       8.032       7.532       7.028       6.519       6.006       5.488    
        4.965       4.437       3.903       3.365       2.821       2.271       1.715       1.154      0.5859      1.1554E-02
   8    9.990       9.507       9.019       8.528       8.032       7.532       7.028       6.519       6.006       5.488    
        4.965       4.437       3.903       3.365       2.821       2.271       1.715       1.154      0.5859      1.1554E-02
   9    9.990       9.507       9.019       8.528       8.032       7.532       7.028       6.519       6.006       5.488    
        4.965       4.437       3.903       3.365       2.821       2.271       1.715       1.154      0.5859      1.1554E-02
  10    9.990       9.507       9.019       8.528       8.032       7.532       7.028       6.519       6.006       5.488    
        4.965       4.437       3.903       3.365       2.821       2.271       1.715       1.154      0.5859      1.1554E-02

 HEAD WILL BE SAVED ON UNIT   51 AT END OF TIME STEP  14, STRESS PERIOD    2

 DRAWDOWN WILL BE SAVED ON UNIT   52 AT END OF TIME STEP  14, STRESS PERIOD    2
1
  VOLUMETRIC BUDGET FOR ENTIRE MODEL AT END OF TIME STEP 14 IN STRESS PERIOD   2
  ------------------------------------------------------------------------------

     CUMULATIVE VOLUMES      L**3       RATES FOR THIS TIME STEP      L**3/T
     ------------------                 ------------------------

           IN:                                      IN:
           ---                                      ---
             STORAGE =       3.4016E-02               STORAGE =       2.4033E-03
       CONSTANT HEAD =           0.0000         CONSTANT HEAD =           0.0000
               WELLS =           0.0000                 WELLS =           0.0000
     HEAD DEP BOUNDS =        8665.5391       HEAD DEP BOUNDS =         577.7015

            TOTAL IN =        8665.5732              TOTAL IN =         577.7039

          OUT:                                     OUT:
          ----                                     ----
             STORAGE =       2.4414E-02               STORAGE =       1.8311E-03
       CONSTANT HEAD =           0.0000         CONSTANT HEAD =           0.0000
               WELLS =           0.0000                 WELLS =           0.0000
     HEAD DEP BOUNDS =        8665.7920       HEAD DEP BOUNDS =         577.7195

           TOTAL OUT =        8665.8164             TOTAL OUT =         577.7213

            IN - OUT =          -0.2432              IN - OUT =      -1.7456E-02

 PERCENT DISCREPANCY =           0.00     PERCENT DISCREPANCY =           0.00






          TIME SUMMARY AT END OF TIME STEP  14 IN STRESS PERIOD    2
                    SECONDS     MINUTES      HOURS       DAYS        YEARS
                    -----------------------------------------------------------
   TIME STEP LENGTH  86400.      1440.0      24.000      1.0000     2.73785E-03
 STRESS PERIOD TIME 1.20960E+06  20160.      336.00      14.000     3.83299E-02
         TOTAL TIME 1.29600E+06  21600.      360.00      15.000     4.10678E-02
1
 
 SOLVING FOR HEAD 

 OUTPUT CONTROL FOR STRESS PERIOD    2   TIME STEP  15
    SAVE HEAD FOR ALL LAYERS
    SAVE DRAWDOWN FOR ALL LAYERS
    SAVE BUDGET
    PRINT HEAD FOR ALL LAYERS
    PRINT BUDGET
 UBDSV1 SAVING "         STORAGE" ON UNIT  53 AT TIME STEP 15, STRESS PERIOD   2
 UBDSV2 SAVING "   CONSTANT HEAD" ON UNIT  53 AT TIME STEP 15, STRESS PERIOD   2
 UBDSV1 SAVING "FLOW RIGHT FACE " ON UNIT  53 AT TIME STEP 15, STRESS PERIOD   2
 UBDSV1 SAVING "FLOW FRONT FACE " ON UNIT  53 AT TIME STEP 15, STRESS PERIOD   2
1
              HEAD IN LAYER   1 AT END OF TIME STEP  15 IN STRESS PERIOD    2
  ---------------------------------------------------------------------------

            1           2           3           4           5           6           7           8           9          10
           11          12          13          14          15          16          17          18          19          20
 ........................................................................................................................
   1    9.990       9.507       9.019       8.528       8.032       7.532       7.028       6.519       6.006       5.488    
        4.965       4.437       3.903       3.365       2.821       2.271       1.715       1.154      0.5859      1.1554E-02
   2    9.990       9.507       9.019       8.528       8.032       7.532       7.028       6.519       6.006       5.488    
        4.965       4.437       3.903       3.365       2.821       2.271       1.715       1.154      0.5859      1.1554E-02
   3    9.990       9.507       9.019       8.528       8.032       7.532       7.028       6.519       6.006       5.488    
        4.965       4.437       3.903       3.365       2.821       2.271       1.715       1.154      0.5859      1.1554E-02
   4    9.990       9.507       9.019       8.528       8.032       7.532       7.028       6.519       6.006       5.488    
        4.965       4.437       3.903       3.365       2.821       2.271       1.715       1.154      0.5859      1.1554E-02
   5    9.990       9.507       9.019       8.528       8.032       7.532       7.028       6.519       6.006       5.488    
        4.965       4.437       3.903       3.365       2.821       2.271       1.715       1.154      0.5859      1.1554E-02
   6    9.990       9.507       9.019       8.528       8.032       7.532       7.028       6.519       6.006       5.488    
        4.965       4.437       3.903       3.365       2.821       2.271       1.715       1.154      0.5859      1.1554E-02
   7    9.990       9.507       9.019       8.528       8.032       7.532       7.028       6.519       6.006       5.488    
        4.965       4.437       3.903       3.365       2.821       2.271       1.715       1.154      0.5859      1.1554E-02
   8    9.990       9.507       9.019       8.528       8.032       7.532       7.028       6.519       6.006       5.488    
        4.965       4.437       3.903       3.365       2.821       2.271       1.715       1.154      0.5859      1.1554E-02
   9    9.990       9.507       9.019       8.528       8.032       7.532       7.028       6.519       6.006       5.488    
        4.965       4.437       3.903       3.365       2.821       2.271       1.715       1.154      0.5859      1.1554E-02
  10    9.990       9.507       9.019       8.528       8.032       7.532       7.028       6.519       6.006       5.488    
        4.965       4.437       3.903       3.365       2.821       2.271       1.715       1.154      0.5859      1.1554E-02

 HEAD WILL BE SAVED ON UNIT   51 AT END OF TIME STEP  15, STRESS PERIOD    2

 DRAWDOWN WILL BE SAVED ON UNIT   52 AT END OF TIME STEP  15, STRESS PERIOD    2
1
  VOLUMETRIC BUDGET FOR ENTIRE MODEL AT END OF TIME STEP 15 IN STRESS PERIOD   2
  ------------------------------------------------------------------------------

     CUMULATIVE VOLUMES      L**3       RATES FOR THIS TIME STEP      L**3/T
     ------------------                 ------------------------

           IN:                                      IN:
           ---                                      ---
             STORAGE =       3.6419E-02               STORAGE =       2.4033E-03
       CONSTANT HEAD =           0.0000         CONSTANT HEAD =           0.0000
               WELLS =           0.0000                 WELLS =           0.0000
     HEAD DEP BOUNDS =        9243.2402       HEAD DEP BOUNDS =         577.7015

            TOTAL IN =        9243.2764              TOTAL IN =         577.7039

          OUT:                                     OUT:
          ----                                     ----
             STORAGE =       2.6245E-02               STORAGE =       1.8311E-03
       CONSTANT HEAD =           0.0000         CONSTANT HEAD =           0.0000
               WELLS =           0.0000                 WELLS =           0.0000
     HEAD DEP BOUNDS =        9243.5117       HEAD DEP BOUNDS =         577.7195

           TOTAL OUT =        9243.5381             TOTAL OUT =         577.7213

            IN - OUT =          -0.2617              IN - OUT =      -1.7456E-02

 PERCENT DISCREPANCY =           0.00     PERCENT DISCREPANCY =           0.00






          TIME SUMMARY AT END OF TIME STEP  15 IN STRESS PERIOD    2
                    SECONDS     MINUTES      HOURS       DAYS        YEARS
                    -----------------------------------------------------------
   TIME STEP LENGTH  86400.      1440.0      24.000      1.0000     2.73785E-03
 STRESS PERIOD TIME 1.29600E+06  21600.      360.00      15.000     4.10678E-02
         TOTAL TIME 1.38240E+06  23040.      384.00      16.000     4.38056E-02
1
 
 SOLVING FOR HEAD 

 OUTPUT CONTROL FOR STRESS PERIOD    2   TIME STEP  16
    SAVE HEAD FOR ALL LAYERS
    SAVE DRAWDOWN FOR ALL LAYERS
    SAVE BUDGET
    PRINT HEAD FOR ALL LAYERS
    PRINT BUDGET
 UBDSV1 SAVING "         STORAGE" ON UNIT  53 AT TIME STEP 16, STRESS PERIOD   2
 UBDSV2 SAVING "   CONSTANT HEAD" ON UNIT  53 AT TIME STEP 16, STRESS PERIOD   2
 UBDSV1 SAVING "FLOW RIGHT FACE " ON UNIT  53 AT TIME STEP 16, STRESS PERIOD   2
 UBDSV1 SAVING "FLOW FRONT FACE " ON UNIT  53 AT TIME STEP 16, STRESS PERIOD   2
1
              HEAD IN LAYER   1 AT END OF TIME STEP  16 IN STRESS PERIOD    2
  ---------------------------------------------------------------------------

            1           2           3           4           5           6           7           8           9          10
           11          12          13          14          15          16          17          18          19          20
 ........................................................................................................................
   1    9.990       9.507       9.019       8.528       8.032       7.532       7.028       6.519       6.006       5.488    
        4.965       4.437       3.903       3.365       2.821       2.271       1.715       1.154      0.5859      1.1554E-02
   2    9.990       9.507       9.019       8.528       8.032       7.532       7.028       6.519       6.006       5.488    
        4.965       4.437       3.903       3.365       2.821       2.271       1.715       1.154      0.5859      1.1554E-02
   3    9.990       9.507       9.019       8.528       8.032       7.532       7.028       6.519       6.006       5.488    
        4.965       4.437       3.903       3.365       2.821       2.271       1.715       1.154      0.5859      1.1554E-02
   4    9.990       9.507       9.019       8.528       8.032       7.532       7.028       6.519       6.006       5.488    
        4.965       4.437       3.903       3.365       2.821       2.271       1.715       1.154      0.5859      1.1554E-02
   5    9.990       9.507       9.019       8.528       8.032       7.532       7.028       6.519       6.006       5.488    
        4.965       4.437       3.903       3.365       2.821       2.271       1.715       1.154      0.5859      1.1554E-02
   6    9.990       9.507       9.019       8.528       8.032       7.532       7.028       6.519       6.006       5.488    
        4.965       4.437       3.903       3.365       2.821       2.271       1.715       1.154      0.5859      1.1554E-02
   7    9.990       9.507       9.019       8.528       8.032       7.532       7.028       6.519       6.006       5.488    
        4.965       4.437       3.903       3.365       2.821       2.271       1.715       1.154      0.5859      1.1554E-02
   8    9.990       9.507       9.019       8.528       8.032       7.532       7.028       6.519       6.006       5.488    
        4.965       4.437       3.903       3.365       2.821       2.271       1.715       1.154      0.5859      1.1554E-02
   9    9.990       9.507       9.019       8.528       8.032       7.532       7.028       6.519       6.006       5.488    
        4.965       4.437       3.903       3.365       2.821       2.271       1.715       1.154      0.5859      1.1554E-02
  10    9.990       9.507       9.019       8.528       8.032       7.532       7.028       6.519       6.006       5.488    
        4.965       4.437       3.903       3.365       2.821       2.271       1.715       1.154      0.5859      1.1554E-02

 HEAD WILL BE SAVED ON UNIT   51 AT END OF TIME STEP  16, STRESS PERIOD    2

 DRAWDOWN WILL BE SAVED ON UNIT   52 AT END OF TIME STEP  16, STRESS PERIOD    2
1
  VOLUMETRIC BUDGET FOR ENTIRE MODEL AT END OF TIME STEP 16 IN STRESS PERIOD   2
  ------------------------------------------------------------------------------

     CUMULATIVE VOLUMES      L**3       RATES FOR THIS TIME STEP      L**3/T
     ------------------                 ------------------------

           IN:                                      IN:
           ---                                      ---
             STORAGE =       3.8823E-02               STORAGE =       2.4033E-03
       CONSTANT HEAD =           0.0000         CONSTANT HEAD =           0.0000
               WELLS =           0.0000                 WELLS =           0.0000
     HEAD DEP BOUNDS =        9820.9414       HEAD DEP BOUNDS =         577.7015

            TOTAL IN =        9820.9805              TOTAL IN =         577.7039

          OUT:                                     OUT:
          ----                                     ----
             STORAGE =       2.8076E-02               STORAGE =       1.8311E-03
       CONSTANT HEAD =           0.0000         CONSTANT HEAD =           0.0000
               WELLS =           0.0000                 WELLS =           0.0000
     HEAD DEP BOUNDS =        9821.2314       HEAD DEP BOUNDS =         577.7195

           TOTAL OUT =        9821.2598             TOTAL OUT =         577.7213

            IN - OUT =          -0.2793              IN - OUT =      -1.7456E-02

 PERCENT DISCREPANCY =           0.00     PERCENT DISCREPANCY =           0.00






          TIME SUMMARY AT END OF TIME STEP  16 IN STRESS PERIOD    2
                    SECONDS     MINUTES      HOURS       DAYS        YEARS
                    -----------------------------------------------------------
   TIME STEP LENGTH  86400.      1440.0      24.000      1.0000     2.73785E-03
 STRESS PERIOD TIME 1.38240E+06  23040.      384.00      16.000     4.38056E-02
         TOTAL TIME 1.46880E+06  24480.      408.00      17.000     4.65435E-02
1
 
 SOLVING FOR HEAD 

 OUTPUT CONTROL FOR STRESS PERIOD    2   TIME STEP  17
    SAVE HEAD FOR ALL LAYERS
    SAVE DRAWDOWN FOR ALL LAYERS
    SAVE BUDGET
    PRINT HEAD FOR ALL LAYERS
    PRINT BUDGET
 UBDSV1 SAVING "         STORAGE" ON UNIT  53 AT TIME STEP 17, STRESS PERIOD   2
 UBDSV2 SAVING "   CONSTANT HEAD" ON UNIT  53 AT TIME STEP 17, STRESS PERIOD   2
 UBDSV1 SAVING "FLOW RIGHT FACE " ON UNIT  53 AT TIME STEP 17, STRESS PERIOD   2
 UBDSV1 SAVING "FLOW FRONT FACE " ON UNIT  53 AT TIME STEP 17, STRESS PERIOD   2
1
              HEAD IN LAYER   1 AT END OF TIME STEP  17 IN STRESS PERIOD    2
  ---------------------------------------------------------------------------

            1           2           3           4           5           6           7           8           9          10
           11          12          13          14          15          16          17          18          19          20
 ........................................................................................................................
   1    9.990       9.507       9.019       8.528       8.032       7.532       7.028       6.519       6.006       5.488    
        4.965       4.437       3.903       3.365       2.821       2.271       1.715       1.154      0.5859      1.1554E-02
   2    9.990       9.507       9.019       8.528       8.032       7.532       7.028       6.519       6.006       5.488    
        4.965       4.437       3.903       3.365       2.821       2.271       1.715       1.154      0.5859      1.1554E-02
   3    9.990       9.507       9.019       8.528       8.032       7.532       7.028       6.519       6.006       5.488    
        4.965       4.437       3.903       3.365       2.821       2.271       1.715       1.154      0.5859      1.1554E-02
   4    9.990       9.507       9.019       8.528       8.032       7.532       7.028       6.519       6.006       5.488    
        4.965       4.437       3.903       3.365       2.821       2.271       1.715       1.154      0.5859      1.1554E-02
   5    9.990       9.507       9.019       8.528       8.032       7.532       7.028       6.519       6.006       5.488    
        4.965       4.437       3.903       3.365       2.821       2.271       1.715       1.154      0.5859      1.1554E-02
   6    9.990       9.507       9.019       8.528       8.032       7.532       7.028       6.519       6.006       5.488    
        4.965       4.437       3.903       3.365       2.821       2.271       1.715       1.154      0.5859      1.1554E-02
   7    9.990       9.507       9.019       8.528       8.032       7.532       7.028       6.519       6.006       5.488    
        4.965       4.437       3.903       3.365       2.821       2.271       1.715       1.154      0.5859      1.1554E-02
   8    9.990       9.507       9.019       8.528       8.032       7.532       7.028       6.519       6.006       5.488    
        4.965       4.437       3.903       3.365       2.821       2.271       1.715       1.154      0.5859      1.1554E-02
   9    9.990       9.507       9.019       8.528       8.032       7.532       7.028       6.519       6.006       5.488    
        4.965       4.437       3.903       3.365       2.821       2.271       1.715       1.154      0.5859      1.1554E-02
  10    9.990       9.507       9.019       8.528       8.032       7.532       7.028       6.519       6.006       5.488    
        4.965       4.437       3.903       3.365       2.821       2.271       1.715       1.154      0.5859      1.1554E-02

 HEAD WILL BE SAVED ON UNIT   51 AT END OF TIME STEP  17, STRESS PERIOD    2

 DRAWDOWN WILL BE SAVED ON UNIT   52 AT END OF TIME STEP  17, STRESS PERIOD    2
1
  VOLUMETRIC BUDGET FOR ENTIRE MODEL AT END OF TIME STEP 17 IN STRESS PERIOD   2
  ------------------------------------------------------------------------------

     CUMULATIVE VOLUMES      L**3       RATES FOR THIS TIME STEP      L**3/T
     ------------------                 ------------------------

           IN:                                      IN:
           ---                                      ---
             STORAGE =       4.1226E-02               STORAGE =       2.4033E-03
       CONSTANT HEAD =           0.0000         CONSTANT HEAD =           0.0000
               WELLS =           0.0000                 WELLS =           0.0000
     HEAD DEP BOUNDS =       10398.6426       HEAD DEP BOUNDS =         577.7015

            TOTAL IN =       10398.6836              TOTAL IN =         577.7039

          OUT:                                     OUT:
          ----                                     ----
             STORAGE =       2.9907E-02               STORAGE =       1.8311E-03
       CONSTANT HEAD =           0.0000         CONSTANT HEAD =           0.0000
               WELLS =           0.0000                 WELLS =           0.0000
     HEAD DEP BOUNDS =       10398.9512       HEAD DEP BOUNDS =         577.7195

           TOTAL OUT =       10398.9814             TOTAL OUT =         577.7213

            IN - OUT =          -0.2979              IN - OUT =      -1.7456E-02

 PERCENT DISCREPANCY =           0.00     PERCENT DISCREPANCY =           0.00






          TIME SUMMARY AT END OF TIME STEP  17 IN STRESS PERIOD    2
                    SECONDS     MINUTES      HOURS       DAYS        YEARS
                    -----------------------------------------------------------
   TIME STEP LENGTH  86400.      1440.0      24.000      1.0000     2.73785E-03
 STRESS PERIOD TIME 1.46880E+06  24480.      408.00      17.000     4.65435E-02
         TOTAL TIME 1.55520E+06  25920.      432.00      18.000     4.92813E-02
1
 
 SOLVING FOR HEAD 

 OUTPUT CONTROL FOR STRESS PERIOD    2   TIME STEP  18
    SAVE HEAD FOR ALL LAYERS
    SAVE DRAWDOWN FOR ALL LAYERS
    SAVE BUDGET
    PRINT HEAD FOR ALL LAYERS
    PRINT BUDGET
 UBDSV1 SAVING "         STORAGE" ON UNIT  53 AT TIME STEP 18, STRESS PERIOD   2
 UBDSV2 SAVING "   CONSTANT HEAD" ON UNIT  53 AT TIME STEP 18, STRESS PERIOD   2
 UBDSV1 SAVING "FLOW RIGHT FACE " ON UNIT  53 AT TIME STEP 18, STRESS PERIOD   2
 UBDSV1 SAVING "FLOW FRONT FACE " ON UNIT  53 AT TIME STEP 18, STRESS PERIOD   2
1
              HEAD IN LAYER   1 AT END OF TIME STEP  18 IN STRESS PERIOD    2
  ---------------------------------------------------------------------------

            1           2           3           4           5           6           7           8           9          10
           11          12          13          14          15          16          17          18          19          20
 ........................................................................................................................
   1    9.990       9.507       9.019       8.528       8.032       7.532       7.028       6.519       6.006       5.488    
        4.965       4.437       3.903       3.365       2.821       2.271       1.715       1.154      0.5859      1.1554E-02
   2    9.990       9.507       9.019       8.528       8.032       7.532       7.028       6.519       6.006       5.488    
        4.965       4.437       3.903       3.365       2.821       2.271       1.715       1.154      0.5859      1.1554E-02
   3    9.990       9.507       9.019       8.528       8.032       7.532       7.028       6.519       6.006       5.488    
        4.965       4.437       3.903       3.365       2.821       2.271       1.715       1.154      0.5859      1.1554E-02
   4    9.990       9.507       9.019       8.528       8.032       7.532       7.028       6.519       6.006       5.488    
        4.965       4.437       3.903       3.365       2.821       2.271       1.715       1.154      0.5859      1.1554E-02
   5    9.990       9.507       9.019       8.528       8.032       7.532       7.028       6.519       6.006       5.488    
        4.965       4.437       3.903       3.365       2.821       2.271       1.715       1.154      0.5859      1.1554E-02
   6    9.990       9.507       9.019       8.528       8.032       7.532       7.028       6.519       6.006       5.488    
        4.965       4.437       3.903       3.365       2.821       2.271       1.715       1.154      0.5859      1.1554E-02
   7    9.990       9.507       9.019       8.528       8.032       7.532       7.028       6.519       6.006       5.488    
        4.965       4.437       3.903       3.365       2.821       2.271       1.715       1.154      0.5859      1.1554E-02
   8    9.990       9.507       9.019       8.528       8.032       7.532       7.028       6.519       6.006       5.488    
        4.965       4.437       3.903       3.365       2.821       2.271       1.715       1.154      0.5859      1.1554E-02
   9    9.990       9.507       9.019       8.528       8.032       7.532       7.028       6.519       6.006       5.488    
        4.965       4.437       3.903       3.365       2.821       2.271       1.715       1.154      0.5859      1.1554E-02
  10    9.990       9.507       9.019       8.528       8.032       7.532       7.028       6.519       6.006       5.488    
        4.965       4.437       3.903       3.365       2.821       2.271       1.715       1.154      0.5859      1.1554E-02

 HEAD WILL BE SAVED ON UNIT   51 AT END OF TIME STEP  18, STRESS PERIOD    2

 DRAWDOWN WILL BE SAVED ON UNIT   52 AT END OF TIME STEP  18, STRESS PERIOD    2
1
  VOLUMETRIC BUDGET FOR ENTIRE MODEL AT END OF TIME STEP 18 IN STRESS PERIOD   2
  ------------------------------------------------------------------------------

     CUMULATIVE VOLUMES      L**3       RATES FOR THIS TIME STEP      L**3/T
     ------------------                 ------------------------

           IN:                                      IN:
           ---                                      ---
             STORAGE =       4.3629E-02               STORAGE =       2.4033E-03
       CONSTANT HEAD =           0.0000         CONSTANT HEAD =           0.0000
               WELLS =           0.0000                 WELLS =           0.0000
     HEAD DEP BOUNDS =       10976.3438       HEAD DEP BOUNDS =         577.7015

            TOTAL IN =       10976.3877              TOTAL IN =         577.7039

          OUT:                                     OUT:
          ----                                     ----
             STORAGE =       3.1738E-02               STORAGE =       1.8311E-03
       CONSTANT HEAD =           0.0000         CONSTANT HEAD =           0.0000
               WELLS =           0.0000                 WELLS =           0.0000
     HEAD DEP BOUNDS =       10976.6709       HEAD DEP BOUNDS =         577.7195

           TOTAL OUT =       10976.7031             TOTAL OUT =         577.7213

            IN - OUT =          -0.3154              IN - OUT =      -1.7456E-02

 PERCENT DISCREPANCY =           0.00     PERCENT DISCREPANCY =           0.00






          TIME SUMMARY AT END OF TIME STEP  18 IN STRESS PERIOD    2
                    SECONDS     MINUTES      HOURS       DAYS        YEARS
                    -----------------------------------------------------------
   TIME STEP LENGTH  86400.      1440.0      24.000      1.0000     2.73785E-03
 STRESS PERIOD TIME 1.55520E+06  25920.      432.00      18.000     4.92813E-02
         TOTAL TIME 1.64160E+06  27360.      456.00      19.000     5.20192E-02
1
 
 SOLVING FOR HEAD 

 OUTPUT CONTROL FOR STRESS PERIOD    2   TIME STEP  19
    SAVE HEAD FOR ALL LAYERS
    SAVE DRAWDOWN FOR ALL LAYERS
    SAVE BUDGET
    PRINT HEAD FOR ALL LAYERS
    PRINT BUDGET
 UBDSV1 SAVING "         STORAGE" ON UNIT  53 AT TIME STEP 19, STRESS PERIOD   2
 UBDSV2 SAVING "   CONSTANT HEAD" ON UNIT  53 AT TIME STEP 19, STRESS PERIOD   2
 UBDSV1 SAVING "FLOW RIGHT FACE " ON UNIT  53 AT TIME STEP 19, STRESS PERIOD   2
 UBDSV1 SAVING "FLOW FRONT FACE " ON UNIT  53 AT TIME STEP 19, STRESS PERIOD   2
1
              HEAD IN LAYER   1 AT END OF TIME STEP  19 IN STRESS PERIOD    2
  ---------------------------------------------------------------------------

            1           2           3           4           5           6           7           8           9          10
           11          12          13          14          15          16          17          18          19          20
 ........................................................................................................................
   1    9.990       9.507       9.019       8.528       8.032       7.532       7.028       6.519       6.006       5.488    
        4.965       4.437       3.903       3.365       2.821       2.271       1.715       1.154      0.5859      1.1554E-02
   2    9.990       9.507       9.019       8.528       8.032       7.532       7.028       6.519       6.006       5.488    
        4.965       4.437       3.903       3.365       2.821       2.271       1.715       1.154      0.5859      1.1554E-02
   3    9.990       9.507       9.019       8.528       8.032       7.532       7.028       6.519       6.006       5.488    
        4.965       4.437       3.903       3.365       2.821       2.271       1.715       1.154      0.5859      1.1554E-02
   4    9.990       9.507       9.019       8.528       8.032       7.532       7.028       6.519       6.006       5.488    
        4.965       4.437       3.903       3.365       2.821       2.271       1.715       1.154      0.5859      1.1554E-02
   5    9.990       9.507       9.019       8.528       8.032       7.532       7.028       6.519       6.006       5.488    
        4.965       4.437       3.903       3.365       2.821       2.271       1.715       1.154      0.5859      1.1554E-02
   6    9.990       9.507       9.019       8.528       8.032       7.532       7.028       6.519       6.006       5.488    
        4.965       4.437       3.903       3.365       2.821       2.271       1.715       1.154      0.5859      1.1554E-02
   7    9.990       9.507       9.019       8.528       8.032       7.532       7.028       6.519       6.006       5.488    
        4.965       4.437       3.903       3.365       2.821       2.271       1.715       1.154      0.5859      1.1554E-02
   8    9.990       9.507       9.019       8.528       8.032       7.532       7.028       6.519       6.006       5.488    
        4.965       4.437       3.903       3.365       2.821       2.271       1.715       1.154      0.5859      1.1554E-02
   9    9.990       9.507       9.019       8.528       8.032       7.532       7.028       6.519       6.006       5.488    
        4.965       4.437       3.903       3.365       2.821       2.271       1.715       1.154      0.5859      1.1554E-02
  10    9.990       9.507       9.019       8.528       8.032       7.532       7.028       6.519       6.006       5.488    
        4.965       4.437       3.903       3.365       2.821       2.271       1.715       1.154      0.5859      1.1554E-02

 HEAD WILL BE SAVED ON UNIT   51 AT END OF TIME STEP  19, STRESS PERIOD    2

 DRAWDOWN WILL BE SAVED ON UNIT   52 AT END OF TIME STEP  19, STRESS PERIOD    2
1
  VOLUMETRIC BUDGET FOR ENTIRE MODEL AT END OF TIME STEP 19 IN STRESS PERIOD   2
  ------------------------------------------------------------------------------

     CUMULATIVE VOLUMES      L**3       RATES FOR THIS TIME STEP      L**3/T
     ------------------                 ------------------------

           IN:                                      IN:
           ---                                      ---
             STORAGE =       4.6032E-02               STORAGE =       2.4033E-03
       CONSTANT HEAD =           0.0000         CONSTANT HEAD =           0.0000
               WELLS =           0.0000                 WELLS =           0.0000
     HEAD DEP BOUNDS =       11554.0449       HEAD DEP BOUNDS =         577.7015

            TOTAL IN =       11554.0908              TOTAL IN =         577.7039

          OUT:                                     OUT:
          ----                                     ----
             STORAGE =       3.3569E-02               STORAGE =       1.8311E-03
       CONSTANT HEAD =           0.0000         CONSTANT HEAD =           0.0000
               WELLS =           0.0000                 WELLS =           0.0000
     HEAD DEP BOUNDS =       11554.3906       HEAD DEP BOUNDS =         577.7195

           TOTAL OUT =       11554.4238             TOTAL OUT =         577.7213

            IN - OUT =          -0.3330              IN - OUT =      -1.7456E-02

 PERCENT DISCREPANCY =           0.00     PERCENT DISCREPANCY =           0.00






          TIME SUMMARY AT END OF TIME STEP  19 IN STRESS PERIOD    2
                    SECONDS     MINUTES      HOURS       DAYS        YEARS
                    -----------------------------------------------------------
   TIME STEP LENGTH  86400.      1440.0      24.000      1.0000     2.73785E-03
 STRESS PERIOD TIME 1.64160E+06  27360.      456.00      19.000     5.20192E-02
         TOTAL TIME 1.72800E+06  28800.      480.00      20.000     5.47570E-02
1
 
 SOLVING FOR HEAD 

 OUTPUT CONTROL FOR STRESS PERIOD    2   TIME STEP  20
    SAVE HEAD FOR ALL LAYERS
    SAVE DRAWDOWN FOR ALL LAYERS
    SAVE BUDGET
    PRINT HEAD FOR ALL LAYERS
    PRINT BUDGET
 UBDSV1 SAVING "         STORAGE" ON UNIT  53 AT TIME STEP 20, STRESS PERIOD   2
 UBDSV2 SAVING "   CONSTANT HEAD" ON UNIT  53 AT TIME STEP 20, STRESS PERIOD   2
 UBDSV1 SAVING "FLOW RIGHT FACE " ON UNIT  53 AT TIME STEP 20, STRESS PERIOD   2
 UBDSV1 SAVING "FLOW FRONT FACE " ON UNIT  53 AT TIME STEP 20, STRESS PERIOD   2
1
              HEAD IN LAYER   1 AT END OF TIME STEP  20 IN STRESS PERIOD    2
  ---------------------------------------------------------------------------

            1           2           3           4           5           6           7           8           9          10
           11          12          13          14          15          16          17          18          19          20
 ........................................................................................................................
   1    9.990       9.507       9.019       8.528       8.032       7.532       7.028       6.519       6.006       5.488    
        4.965       4.437       3.903       3.365       2.821       2.271       1.715       1.154      0.5859      1.1554E-02
   2    9.990       9.507       9.019       8.528       8.032       7.532       7.028       6.519       6.006       5.488    
        4.965       4.437       3.903       3.365       2.821       2.271       1.715       1.154      0.5859      1.1554E-02
   3    9.990       9.507       9.019       8.528       8.032       7.532       7.028       6.519       6.006       5.488    
        4.965       4.437       3.903       3.365       2.821       2.271       1.715       1.154      0.5859      1.1554E-02
   4    9.990       9.507       9.019       8.528       8.032       7.532       7.028       6.519       6.006       5.488    
        4.965       4.437       3.903       3.365       2.821       2.271       1.715       1.154      0.5859      1.1554E-02
   5    9.990       9.507       9.019       8.528       8.032       7.532       7.028       6.519       6.006       5.488    
        4.965       4.437       3.903       3.365       2.821       2.271       1.715       1.154      0.5859      1.1554E-02
   6    9.990       9.507       9.019       8.528       8.032       7.532       7.028       6.519       6.006       5.488    
        4.965       4.437       3.903       3.365       2.821       2.271       1.715       1.154      0.5859      1.1554E-02
   7    9.990       9.507       9.019       8.528       8.032       7.532       7.028       6.519       6.006       5.488    
        4.965       4.437       3.903       3.365       2.821       2.271       1.715       1.154      0.5859      1.1554E-02
   8    9.990       9.507       9.019       8.528       8.032       7.532       7.028       6.519       6.006       5.488    
        4.965       4.437       3.903       3.365       2.821       2.271       1.715       1.154      0.5859      1.1554E-02
   9    9.990       9.507       9.019       8.528       8.032       7.532       7.028       6.519       6.006       5.488    
        4.965       4.437       3.903       3.365       2.821       2.271       1.715       1.154      0.5859      1.1554E-02
  10    9.990       9.507       9.019       8.528       8.032       7.532       7.028       6.519       6.006       5.488    
        4.965       4.437       3.903       3.365       2.821       2.271       1.715       1.154      0.5859      1.1554E-02

 HEAD WILL BE SAVED ON UNIT   51 AT END OF TIME STEP  20, STRESS PERIOD    2

 DRAWDOWN WILL BE SAVED ON UNIT   52 AT END OF TIME STEP  20, STRESS PERIOD    2
1
  VOLUMETRIC BUDGET FOR ENTIRE MODEL AT END OF TIME STEP 20 IN STRESS PERIOD   2
  ------------------------------------------------------------------------------

     CUMULATIVE VOLUMES      L**3       RATES FOR THIS TIME STEP      L**3/T
     ------------------                 ------------------------

           IN:                                      IN:
           ---                                      ---
             STORAGE =       4.8436E-02               STORAGE =       2.4033E-03
       CONSTANT HEAD =           0.0000         CONSTANT HEAD =           0.0000
               WELLS =           0.0000                 WELLS =           0.0000
     HEAD DEP BOUNDS =       12131.7461       HEAD DEP BOUNDS =         577.7015

            TOTAL IN =       12131.7949              TOTAL IN =         577.7039

          OUT:                                     OUT:
          ----                                     ----
             STORAGE =       3.5400E-02               STORAGE =       1.8311E-03
       CONSTANT HEAD =           0.0000         CONSTANT HEAD =           0.0000
               WELLS =           0.0000                 WELLS =           0.0000
     HEAD DEP BOUNDS =       12132.1104       HEAD DEP BOUNDS =         577.7195

           TOTAL OUT =       12132.1455             TOTAL OUT =         577.7213

            IN - OUT =          -0.3506              IN - OUT =      -1.7456E-02

 PERCENT DISCREPANCY =           0.00     PERCENT DISCREPANCY =           0.00






          TIME SUMMARY AT END OF TIME STEP  20 IN STRESS PERIOD    2
                    SECONDS     MINUTES      HOURS       DAYS        YEARS
                    -----------------------------------------------------------
   TIME STEP LENGTH  86400.      1440.0      24.000      1.0000     2.73785E-03
 STRESS PERIOD TIME 1.72800E+06  28800.      480.00      20.000     5.47570E-02
         TOTAL TIME 1.81440E+06  30240.      504.00      21.000     5.74949E-02
1
 
 SOLVING FOR HEAD 

 OUTPUT CONTROL FOR STRESS PERIOD    2   TIME STEP  21
    SAVE HEAD FOR ALL LAYERS
    SAVE DRAWDOWN FOR ALL LAYERS
    SAVE BUDGET
    PRINT HEAD FOR ALL LAYERS
    PRINT BUDGET
 UBDSV1 SAVING "         STORAGE" ON UNIT  53 AT TIME STEP 21, STRESS PERIOD   2
 UBDSV2 SAVING "   CONSTANT HEAD" ON UNIT  53 AT TIME STEP 21, STRESS PERIOD   2
 UBDSV1 SAVING "FLOW RIGHT FACE " ON UNIT  53 AT TIME STEP 21, STRESS PERIOD   2
 UBDSV1 SAVING "FLOW FRONT FACE " ON UNIT  53 AT TIME STEP 21, STRESS PERIOD   2
1
              HEAD IN LAYER   1 AT END OF TIME STEP  21 IN STRESS PERIOD    2
  ---------------------------------------------------------------------------

            1           2           3           4           5           6           7           8           9          10
           11          12          13          14          15          16          17          18          19          20
 ........................................................................................................................
   1    9.990       9.507       9.019       8.528       8.032       7.532       7.028       6.519       6.006       5.488    
        4.965       4.437       3.903       3.365       2.821       2.271       1.715       1.154      0.5859      1.1554E-02
   2    9.990       9.507       9.019       8.528       8.032       7.532       7.028       6.519       6.006       5.488    
        4.965       4.437       3.903       3.365       2.821       2.271       1.715       1.154      0.5859      1.1554E-02
   3    9.990       9.507       9.019       8.528       8.032       7.532       7.028       6.519       6.006       5.488    
        4.965       4.437       3.903       3.365       2.821       2.271       1.715       1.154      0.5859      1.1554E-02
   4    9.990       9.507       9.019       8.528       8.032       7.532       7.028       6.519       6.006       5.488    
        4.965       4.437       3.903       3.365       2.821       2.271       1.715       1.154      0.5859      1.1554E-02
   5    9.990       9.507       9.019       8.528       8.032       7.532       7.028       6.519       6.006       5.488    
        4.965       4.437       3.903       3.365       2.821       2.271       1.715       1.154      0.5859      1.1554E-02
   6    9.990       9.507       9.019       8.528       8.032       7.532       7.028       6.519       6.006       5.488    
        4.965       4.437       3.903       3.365       2.821       2.271       1.715       1.154      0.5859      1.1554E-02
   7    9.990       9.507       9.019       8.528       8.032       7.532       7.028       6.519       6.006       5.488    
        4.965       4.437       3.903       3.365       2.821       2.271       1.715       1.154      0.5859      1.1554E-02
   8    9.990       9.507       9.019       8.528       8.032       7.532       7.028       6.519       6.006       5.488    
        4.965       4.437       3.903       3.365       2.821       2.271       1.715       1.154      0.5859      1.1554E-02
   9    9.990       9.507       9.019       8.528       8.032       7.532       7.028       6.519       6.006       5.488    
        4.965       4.437       3.903       3.365       2.821       2.271       1.715       1.154      0.5859      1.1554E-02
  10    9.990       9.507       9.019       8.528       8.032       7.532       7.028       6.519       6.006       5.488    
        4.965       4.437       3.903       3.365       2.821       2.271       1.715       1.154      0.5859      1.1554E-02

 HEAD WILL BE SAVED ON UNIT   51 AT END OF TIME STEP  21, STRESS PERIOD    2

 DRAWDOWN WILL BE SAVED ON UNIT   52 AT END OF TIME STEP  21, STRESS PERIOD    2
1
  VOLUMETRIC BUDGET FOR ENTIRE MODEL AT END OF TIME STEP 21 IN STRESS PERIOD   2
  ------------------------------------------------------------------------------

     CUMULATIVE VOLUMES      L**3       RATES FOR THIS TIME STEP      L**3/T
     ------------------                 ------------------------

           IN:                                      IN:
           ---                                      ---
             STORAGE =       5.0839E-02               STORAGE =       2.4033E-03
       CONSTANT HEAD =           0.0000         CONSTANT HEAD =           0.0000
               WELLS =           0.0000                 WELLS =           0.0000
     HEAD DEP BOUNDS =       12709.4473       HEAD DEP BOUNDS =         577.7015

            TOTAL IN =       12709.4980              TOTAL IN =         577.7039

          OUT:                                     OUT:
          ----                                     ----
             STORAGE =       3.7231E-02               STORAGE =       1.8311E-03
       CONSTANT HEAD =           0.0000         CONSTANT HEAD =           0.0000
               WELLS =           0.0000                 WELLS =           0.0000
     HEAD DEP BOUNDS =       12709.8301       HEAD DEP BOUNDS =         577.7195

           TOTAL OUT =       12709.8672             TOTAL OUT =         577.7213

            IN - OUT =          -0.3691              IN - OUT =      -1.7456E-02

 PERCENT DISCREPANCY =           0.00     PERCENT DISCREPANCY =           0.00






          TIME SUMMARY AT END OF TIME STEP  21 IN STRESS PERIOD    2
                    SECONDS     MINUTES      HOURS       DAYS        YEARS
                    -----------------------------------------------------------
   TIME STEP LENGTH  86400.      1440.0      24.000      1.0000     2.73785E-03
 STRESS PERIOD TIME 1.81440E+06  30240.      504.00      21.000     5.74949E-02
         TOTAL TIME 1.90080E+06  31680.      528.00      22.000     6.02327E-02
1
 
 SOLVING FOR HEAD 

 OUTPUT CONTROL FOR STRESS PERIOD    2   TIME STEP  22
    SAVE HEAD FOR ALL LAYERS
    SAVE DRAWDOWN FOR ALL LAYERS
    SAVE BUDGET
    PRINT HEAD FOR ALL LAYERS
    PRINT BUDGET
 UBDSV1 SAVING "         STORAGE" ON UNIT  53 AT TIME STEP 22, STRESS PERIOD   2
 UBDSV2 SAVING "   CONSTANT HEAD" ON UNIT  53 AT TIME STEP 22, STRESS PERIOD   2
 UBDSV1 SAVING "FLOW RIGHT FACE " ON UNIT  53 AT TIME STEP 22, STRESS PERIOD   2
 UBDSV1 SAVING "FLOW FRONT FACE " ON UNIT  53 AT TIME STEP 22, STRESS PERIOD   2
1
              HEAD IN LAYER   1 AT END OF TIME STEP  22 IN STRESS PERIOD    2
  ---------------------------------------------------------------------------

            1           2           3           4           5           6           7           8           9          10
           11          12          13          14          15          16          17          18          19          20
 ........................................................................................................................
   1    9.990       9.507       9.019       8.528       8.032       7.532       7.028       6.519       6.006       5.488    
        4.965       4.437       3.903       3.365       2.821       2.271       1.715       1.154      0.5859      1.1554E-02
   2    9.990       9.507       9.019       8.528       8.032       7.532       7.028       6.519       6.006       5.488    
        4.965       4.437       3.903       3.365       2.821       2.271       1.715       1.154      0.5859      1.1554E-02
   3    9.990       9.507       9.019       8.528       8.032       7.532       7.028       6.519       6.006       5.488    
        4.965       4.437       3.903       3.365       2.821       2.271       1.715       1.154      0.5859      1.1554E-02
   4    9.990       9.507       9.019       8.528       8.032       7.532       7.028       6.519       6.006       5.488    
        4.965       4.437       3.903       3.365       2.821       2.271       1.715       1.154      0.5859      1.1554E-02
   5    9.990       9.507       9.019       8.528       8.032       7.532       7.028       6.519       6.006       5.488    
        4.965       4.437       3.903       3.365       2.821       2.271       1.715       1.154      0.5859      1.1554E-02
   6    9.990       9.507       9.019       8.528       8.032       7.532       7.028       6.519       6.006       5.488    
        4.965       4.437       3.903       3.365       2.821       2.271       1.715       1.154      0.5859      1.1554E-02
   7    9.990       9.507       9.019       8.528       8.032       7.532       7.028       6.519       6.006       5.488    
        4.965       4.437       3.903       3.365       2.821       2.271       1.715       1.154      0.5859      1.1554E-02
   8    9.990       9.507       9.019       8.528       8.032       7.532       7.028       6.519       6.006       5.488    
        4.965       4.437       3.903       3.365       2.821       2.271       1.715       1.154      0.5859      1.1554E-02
   9    9.990       9.507       9.019       8.528       8.032       7.532       7.028       6.519       6.006       5.488    
        4.965       4.437       3.903       3.365       2.821       2.271       1.715       1.154      0.5859      1.1554E-02
  10    9.990       9.507       9.019       8.528       8.032       7.532       7.028       6.519       6.006       5.488    
        4.965       4.437       3.903       3.365       2.821       2.271       1.715       1.154      0.5859      1.1554E-02

 HEAD WILL BE SAVED ON UNIT   51 AT END OF TIME STEP  22, STRESS PERIOD    2

 DRAWDOWN WILL BE SAVED ON UNIT   52 AT END OF TIME STEP  22, STRESS PERIOD    2
1
  VOLUMETRIC BUDGET FOR ENTIRE MODEL AT END OF TIME STEP 22 IN STRESS PERIOD   2
  ------------------------------------------------------------------------------

     CUMULATIVE VOLUMES      L**3       RATES FOR THIS TIME STEP      L**3/T
     ------------------                 ------------------------

           IN:                                      IN:
           ---                                      ---
             STORAGE =       5.3242E-02               STORAGE =       2.4033E-03
       CONSTANT HEAD =           0.0000         CONSTANT HEAD =           0.0000
               WELLS =           0.0000                 WELLS =           0.0000
     HEAD DEP BOUNDS =       13287.1484       HEAD DEP BOUNDS =         577.7015

            TOTAL IN =       13287.2021              TOTAL IN =         577.7039

          OUT:                                     OUT:
          ----                                     ----
             STORAGE =       3.9062E-02               STORAGE =       1.8311E-03
       CONSTANT HEAD =           0.0000         CONSTANT HEAD =           0.0000
               WELLS =           0.0000                 WELLS =           0.0000
     HEAD DEP BOUNDS =       13287.5498       HEAD DEP BOUNDS =         577.7195

           TOTAL OUT =       13287.5889             TOTAL OUT =         577.7213

            IN - OUT =          -0.3867              IN - OUT =      -1.7456E-02

 PERCENT DISCREPANCY =           0.00     PERCENT DISCREPANCY =           0.00






          TIME SUMMARY AT END OF TIME STEP  22 IN STRESS PERIOD    2
                    SECONDS     MINUTES      HOURS       DAYS        YEARS
                    -----------------------------------------------------------
   TIME STEP LENGTH  86400.      1440.0      24.000      1.0000     2.73785E-03
 STRESS PERIOD TIME 1.90080E+06  31680.      528.00      22.000     6.02327E-02
         TOTAL TIME 1.98720E+06  33120.      552.00      23.000     6.29706E-02
1
 
 SOLVING FOR HEAD 

 OUTPUT CONTROL FOR STRESS PERIOD    2   TIME STEP  23
    SAVE HEAD FOR ALL LAYERS
    SAVE DRAWDOWN FOR ALL LAYERS
    SAVE BUDGET
    PRINT HEAD FOR ALL LAYERS
    PRINT BUDGET
 UBDSV1 SAVING "         STORAGE" ON UNIT  53 AT TIME STEP 23, STRESS PERIOD   2
 UBDSV2 SAVING "   CONSTANT HEAD" ON UNIT  53 AT TIME STEP 23, STRESS PERIOD   2
 UBDSV1 SAVING "FLOW RIGHT FACE " ON UNIT  53 AT TIME STEP 23, STRESS PERIOD   2
 UBDSV1 SAVING "FLOW FRONT FACE " ON UNIT  53 AT TIME STEP 23, STRESS PERIOD   2
1
              HEAD IN LAYER   1 AT END OF TIME STEP  23 IN STRESS PERIOD    2
  ---------------------------------------------------------------------------

            1           2           3           4           5           6           7           8           9          10
           11          12          13          14          15          16          17          18          19          20
 ........................................................................................................................
   1    9.990       9.507       9.019       8.528       8.032       7.532       7.028       6.519       6.006       5.488    
        4.965       4.437       3.903       3.365       2.821       2.271       1.715       1.154      0.5859      1.1554E-02
   2    9.990       9.507       9.019       8.528       8.032       7.532       7.028       6.519       6.006       5.488    
        4.965       4.437       3.903       3.365       2.821       2.271       1.715       1.154      0.5859      1.1554E-02
   3    9.990       9.507       9.019       8.528       8.032       7.532       7.028       6.519       6.006       5.488    
        4.965       4.437       3.903       3.365       2.821       2.271       1.715       1.154      0.5859      1.1554E-02
   4    9.990       9.507       9.019       8.528       8.032       7.532       7.028       6.519       6.006       5.488    
        4.965       4.437       3.903       3.365       2.821       2.271       1.715       1.154      0.5859      1.1554E-02
   5    9.990       9.507       9.019       8.528       8.032       7.532       7.028       6.519       6.006       5.488    
        4.965       4.437       3.903       3.365       2.821       2.271       1.715       1.154      0.5859      1.1554E-02
   6    9.990       9.507       9.019       8.528       8.032       7.532       7.028       6.519       6.006       5.488    
        4.965       4.437       3.903       3.365       2.821       2.271       1.715       1.154      0.5859      1.1554E-02
   7    9.990       9.507       9.019       8.528       8.032       7.532       7.028       6.519       6.006       5.488    
        4.965       4.437       3.903       3.365       2.821       2.271       1.715       1.154      0.5859      1.1554E-02
   8    9.990       9.507       9.019       8.528       8.032       7.532       7.028       6.519       6.006       5.488    
        4.965       4.437       3.903       3.365       2.821       2.271       1.715       1.154      0.5859      1.1554E-02
   9    9.990       9.507       9.019       8.528       8.032       7.532       7.028       6.519       6.006       5.488    
        4.965       4.437       3.903       3.365       2.821       2.271       1.715       1.154      0.5859      1.1554E-02
  10    9.990       9.507       9.019       8.528       8.032       7.532       7.028       6.519       6.006       5.488    
        4.965       4.437       3.903       3.365       2.821       2.271       1.715       1.154      0.5859      1.1554E-02

 HEAD WILL BE SAVED ON UNIT   51 AT END OF TIME STEP  23, STRESS PERIOD    2

 DRAWDOWN WILL BE SAVED ON UNIT   52 AT END OF TIME STEP  23, STRESS PERIOD    2
1
  VOLUMETRIC BUDGET FOR ENTIRE MODEL AT END OF TIME STEP 23 IN STRESS PERIOD   2
  ------------------------------------------------------------------------------

     CUMULATIVE VOLUMES      L**3       RATES FOR THIS TIME STEP      L**3/T
     ------------------                 ------------------------

           IN:                                      IN:
           ---                                      ---
             STORAGE =       5.5645E-02               STORAGE =       2.4033E-03
       CONSTANT HEAD =           0.0000         CONSTANT HEAD =           0.0000
               WELLS =           0.0000                 WELLS =           0.0000
     HEAD DEP BOUNDS =       13864.8496       HEAD DEP BOUNDS =         577.7015

            TOTAL IN =       13864.9053              TOTAL IN =         577.7039

          OUT:                                     OUT:
          ----                                     ----
             STORAGE =       4.0894E-02               STORAGE =       1.8311E-03
       CONSTANT HEAD =           0.0000         CONSTANT HEAD =           0.0000
               WELLS =           0.0000                 WELLS =           0.0000
     HEAD DEP BOUNDS =       13865.2695       HEAD DEP BOUNDS =         577.7195

           TOTAL OUT =       13865.3105             TOTAL OUT =         577.7213

            IN - OUT =          -0.4053              IN - OUT =      -1.7456E-02

 PERCENT DISCREPANCY =           0.00     PERCENT DISCREPANCY =           0.00






          TIME SUMMARY AT END OF TIME STEP  23 IN STRESS PERIOD    2
                    SECONDS     MINUTES      HOURS       DAYS        YEARS
                    -----------------------------------------------------------
   TIME STEP LENGTH  86400.      1440.0      24.000      1.0000     2.73785E-03
 STRESS PERIOD TIME 1.98720E+06  33120.      552.00      23.000     6.29706E-02
         TOTAL TIME 2.07360E+06  34560.      576.00      24.000     6.57084E-02
1
 
 SOLVING FOR HEAD 

 OUTPUT CONTROL FOR STRESS PERIOD    2   TIME STEP  24
    SAVE HEAD FOR ALL LAYERS
    SAVE DRAWDOWN FOR ALL LAYERS
    SAVE BUDGET
    PRINT HEAD FOR ALL LAYERS
    PRINT BUDGET
 UBDSV1 SAVING "         STORAGE" ON UNIT  53 AT TIME STEP 24, STRESS PERIOD   2
 UBDSV2 SAVING "   CONSTANT HEAD" ON UNIT  53 AT TIME STEP 24, STRESS PERIOD   2
 UBDSV1 SAVING "FLOW RIGHT FACE " ON UNIT  53 AT TIME STEP 24, STRESS PERIOD   2
 UBDSV1 SAVING "FLOW FRONT FACE " ON UNIT  53 AT TIME STEP 24, STRESS PERIOD   2
1
              HEAD IN LAYER   1 AT END OF TIME STEP  24 IN STRESS PERIOD    2
  ---------------------------------------------------------------------------

            1           2           3           4           5           6           7           8           9          10
           11          12          13          14          15          16          17          18          19          20
 ........................................................................................................................
   1    9.990       9.507       9.019       8.528       8.032       7.532       7.028       6.519       6.006       5.488    
        4.965       4.437       3.903       3.365       2.821       2.271       1.715       1.154      0.5859      1.1554E-02
   2    9.990       9.507       9.019       8.528       8.032       7.532       7.028       6.519       6.006       5.488    
        4.965       4.437       3.903       3.365       2.821       2.271       1.715       1.154      0.5859      1.1554E-02
   3    9.990       9.507       9.019       8.528       8.032       7.532       7.028       6.519       6.006       5.488    
        4.965       4.437       3.903       3.365       2.821       2.271       1.715       1.154      0.5859      1.1554E-02
   4    9.990       9.507       9.019       8.528       8.032       7.532       7.028       6.519       6.006       5.488    
        4.965       4.437       3.903       3.365       2.821       2.271       1.715       1.154      0.5859      1.1554E-02
   5    9.990       9.507       9.019       8.528       8.032       7.532       7.028       6.519       6.006       5.488    
        4.965       4.437       3.903       3.365       2.821       2.271       1.715       1.154      0.5859      1.1554E-02
   6    9.990       9.507       9.019       8.528       8.032       7.532       7.028       6.519       6.006       5.488    
        4.965       4.437       3.903       3.365       2.821       2.271       1.715       1.154      0.5859      1.1554E-02
   7    9.990       9.507       9.019       8.528       8.032       7.532       7.028       6.519       6.006       5.488    
        4.965       4.437       3.903       3.365       2.821       2.271       1.715       1.154      0.5859      1.1554E-02
   8    9.990       9.507       9.019       8.528       8.032       7.532       7.028       6.519       6.006       5.488    
        4.965       4.437       3.903       3.365       2.821       2.271       1.715       1.154      0.5859      1.1554E-02
   9    9.990       9.507       9.019       8.528       8.032       7.532       7.028       6.519       6.006       5.488    
        4.965       4.437       3.903       3.365       2.821       2.271       1.715       1.154      0.5859      1.1554E-02
  10    9.990       9.507       9.019       8.528       8.032       7.532       7.028       6.519       6.006       5.488    
        4.965       4.437       3.903       3.365       2.821       2.271       1.715       1.154      0.5859      1.1554E-02

 HEAD WILL BE SAVED ON UNIT   51 AT END OF TIME STEP  24, STRESS PERIOD    2

 DRAWDOWN WILL BE SAVED ON UNIT   52 AT END OF TIME STEP  24, STRESS PERIOD    2
1
  VOLUMETRIC BUDGET FOR ENTIRE MODEL AT END OF TIME STEP 24 IN STRESS PERIOD   2
  ------------------------------------------------------------------------------

     CUMULATIVE VOLUMES      L**3       RATES FOR THIS TIME STEP      L**3/T
     ------------------                 ------------------------

           IN:                                      IN:
           ---                                      ---
             STORAGE =       5.8049E-02               STORAGE =       2.4033E-03
       CONSTANT HEAD =           0.0000         CONSTANT HEAD =           0.0000
               WELLS =           0.0000                 WELLS =           0.0000
     HEAD DEP BOUNDS =       14442.5508       HEAD DEP BOUNDS =         577.7015

            TOTAL IN =       14442.6084              TOTAL IN =         577.7039

          OUT:                                     OUT:
          ----                                     ----
             STORAGE =       4.2725E-02               STORAGE =       1.8311E-03
       CONSTANT HEAD =           0.0000         CONSTANT HEAD =           0.0000
               WELLS =           0.0000                 WELLS =           0.0000
     HEAD DEP BOUNDS =       14442.9893       HEAD DEP BOUNDS =         577.7195

           TOTAL OUT =       14443.0322             TOTAL OUT =         577.7213

            IN - OUT =          -0.4238              IN - OUT =      -1.7456E-02

 PERCENT DISCREPANCY =           0.00     PERCENT DISCREPANCY =           0.00






          TIME SUMMARY AT END OF TIME STEP  24 IN STRESS PERIOD    2
                    SECONDS     MINUTES      HOURS       DAYS        YEARS
                    -----------------------------------------------------------
   TIME STEP LENGTH  86400.      1440.0      24.000      1.0000     2.73785E-03
 STRESS PERIOD TIME 2.07360E+06  34560.      576.00      24.000     6.57084E-02
         TOTAL TIME 2.16000E+06  36000.      600.00      25.000     6.84463E-02
1
 
 SOLVING FOR HEAD 

 OUTPUT CONTROL FOR STRESS PERIOD    2   TIME STEP  25
    SAVE HEAD FOR ALL LAYERS
    SAVE DRAWDOWN FOR ALL LAYERS
    SAVE BUDGET
    PRINT HEAD FOR ALL LAYERS
    PRINT BUDGET
 UBDSV1 SAVING "         STORAGE" ON UNIT  53 AT TIME STEP 25, STRESS PERIOD   2
 UBDSV2 SAVING "   CONSTANT HEAD" ON UNIT  53 AT TIME STEP 25, STRESS PERIOD   2
 UBDSV1 SAVING "FLOW RIGHT FACE " ON UNIT  53 AT TIME STEP 25, STRESS PERIOD   2
 UBDSV1 SAVING "FLOW FRONT FACE " ON UNIT  53 AT TIME STEP 25, STRESS PERIOD   2
1
              HEAD IN LAYER   1 AT END OF TIME STEP  25 IN STRESS PERIOD    2
  ---------------------------------------------------------------------------

            1           2           3           4           5           6           7           8           9          10
           11          12          13          14          15          16          17          18          19          20
 ........................................................................................................................
   1    9.990       9.507       9.019       8.528       8.032       7.532       7.028       6.519       6.006       5.488    
        4.965       4.437       3.903       3.365       2.821       2.271       1.715       1.154      0.5859      1.1554E-02
   2    9.990       9.507       9.019       8.528       8.032       7.532       7.028       6.519       6.006       5.488    
        4.965       4.437       3.903       3.365       2.821       2.271       1.715       1.154      0.5859      1.1554E-02
   3    9.990       9.507       9.019       8.528       8.032       7.532       7.028       6.519       6.006       5.488    
        4.965       4.437       3.903       3.365       2.821       2.271       1.715       1.154      0.5859      1.1554E-02
   4    9.990       9.507       9.019       8.528       8.032       7.532       7.028       6.519       6.006       5.488    
        4.965       4.437       3.903       3.365       2.821       2.271       1.715       1.154      0.5859      1.1554E-02
   5    9.990       9.507       9.019       8.528       8.032       7.532       7.028       6.519       6.006       5.488    
        4.965       4.437       3.903       3.365       2.821       2.271       1.715       1.154      0.5859      1.1554E-02
   6    9.990       9.507       9.019       8.528       8.032       7.532       7.028       6.519       6.006       5.488    
        4.965       4.437       3.903       3.365       2.821       2.271       1.715       1.154      0.5859      1.1554E-02
   7    9.990       9.507       9.019       8.528       8.032       7.532       7.028       6.519       6.006       5.488    
        4.965       4.437       3.903       3.365       2.821       2.271       1.715       1.154      0.5859      1.1554E-02
   8    9.990       9.507       9.019       8.528       8.032       7.532       7.028       6.519       6.006       5.488    
        4.965       4.437       3.903       3.365       2.821       2.271       1.715       1.154      0.5859      1.1554E-02
   9    9.990       9.507       9.019       8.528       8.032       7.532       7.028       6.519       6.006       5.488    
        4.965       4.437       3.903       3.365       2.821       2.271       1.715       1.154      0.5859      1.1554E-02
  10    9.990       9.507       9.019       8.528       8.032       7.532       7.028       6.519       6.006       5.488    
        4.965       4.437       3.903       3.365       2.821       2.271       1.715       1.154      0.5859      1.1554E-02

 HEAD WILL BE SAVED ON UNIT   51 AT END OF TIME STEP  25, STRESS PERIOD    2

 DRAWDOWN WILL BE SAVED ON UNIT   52 AT END OF TIME STEP  25, STRESS PERIOD    2
1
  VOLUMETRIC BUDGET FOR ENTIRE MODEL AT END OF TIME STEP 25 IN STRESS PERIOD   2
  ------------------------------------------------------------------------------

     CUMULATIVE VOLUMES      L**3       RATES FOR THIS TIME STEP      L**3/T
     ------------------                 ------------------------

           IN:                                      IN:
           ---                                      ---
             STORAGE =       6.0452E-02               STORAGE =       2.4033E-03
       CONSTANT HEAD =           0.0000         CONSTANT HEAD =           0.0000
               WELLS =           0.0000                 WELLS =           0.0000
     HEAD DEP BOUNDS =       15020.2520       HEAD DEP BOUNDS =         577.7015

            TOTAL IN =       15020.3125              TOTAL IN =         577.7039

          OUT:                                     OUT:
          ----                                     ----
             STORAGE =       4.4556E-02               STORAGE =       1.8311E-03
       CONSTANT HEAD =           0.0000         CONSTANT HEAD =           0.0000
               WELLS =           0.0000                 WELLS =           0.0000
     HEAD DEP BOUNDS =       15020.7090       HEAD DEP BOUNDS =         577.7195

           TOTAL OUT =       15020.7539             TOTAL OUT =         577.7213

            IN - OUT =          -0.4414              IN - OUT =      -1.7456E-02

 PERCENT DISCREPANCY =           0.00     PERCENT DISCREPANCY =           0.00






          TIME SUMMARY AT END OF TIME STEP  25 IN STRESS PERIOD    2
                    SECONDS     MINUTES      HOURS       DAYS        YEARS
                    -----------------------------------------------------------
   TIME STEP LENGTH  86400.      1440.0      24.000      1.0000     2.73785E-03
 STRESS PERIOD TIME 2.16000E+06  36000.      600.00      25.000     6.84463E-02
         TOTAL TIME 2.24640E+06  37440.      624.00      26.000     7.11841E-02
1
 
 SOLVING FOR HEAD 

 OUTPUT CONTROL FOR STRESS PERIOD    2   TIME STEP  26
    SAVE HEAD FOR ALL LAYERS
    SAVE DRAWDOWN FOR ALL LAYERS
    SAVE BUDGET
    PRINT HEAD FOR ALL LAYERS
    PRINT BUDGET
 UBDSV1 SAVING "         STORAGE" ON UNIT  53 AT TIME STEP 26, STRESS PERIOD   2
 UBDSV2 SAVING "   CONSTANT HEAD" ON UNIT  53 AT TIME STEP 26, STRESS PERIOD   2
 UBDSV1 SAVING "FLOW RIGHT FACE " ON UNIT  53 AT TIME STEP 26, STRESS PERIOD   2
 UBDSV1 SAVING "FLOW FRONT FACE " ON UNIT  53 AT TIME STEP 26, STRESS PERIOD   2
1
              HEAD IN LAYER   1 AT END OF TIME STEP  26 IN STRESS PERIOD    2
  ---------------------------------------------------------------------------

            1           2           3           4           5           6           7           8           9          10
           11          12          13          14          15          16          17          18          19          20
 ........................................................................................................................
   1    9.990       9.507       9.019       8.528       8.032       7.532       7.028       6.519       6.006       5.488    
        4.965       4.437       3.903       3.365       2.821       2.271       1.715       1.154      0.5859      1.1554E-02
   2    9.990       9.507       9.019       8.528       8.032       7.532       7.028       6.519       6.006       5.488    
        4.965       4.437       3.903       3.365       2.821       2.271       1.715       1.154      0.5859      1.1554E-02
   3    9.990       9.507       9.019       8.528       8.032       7.532       7.028       6.519       6.006       5.488    
        4.965       4.437       3.903       3.365       2.821       2.271       1.715       1.154      0.5859      1.1554E-02
   4    9.990       9.507       9.019       8.528       8.032       7.532       7.028       6.519       6.006       5.488    
        4.965       4.437       3.903       3.365       2.821       2.271       1.715       1.154      0.5859      1.1554E-02
   5    9.990       9.507       9.019       8.528       8.032       7.532       7.028       6.519       6.006       5.488    
        4.965       4.437       3.903       3.365       2.821       2.271       1.715       1.154      0.5859      1.1554E-02
   6    9.990       9.507       9.019       8.528       8.032       7.532       7.028       6.519       6.006       5.488    
        4.965       4.437       3.903       3.365       2.821       2.271       1.715       1.154      0.5859      1.1554E-02
   7    9.990       9.507       9.019       8.528       8.032       7.532       7.028       6.519       6.006       5.488    
        4.965       4.437       3.903       3.365       2.821       2.271       1.715       1.154      0.5859      1.1554E-02
   8    9.990       9.507       9.019       8.528       8.032       7.532       7.028       6.519       6.006       5.488    
        4.965       4.437       3.903       3.365       2.821       2.271       1.715       1.154      0.5859      1.1554E-02
   9    9.990       9.507       9.019       8.528       8.032       7.532       7.028       6.519       6.006       5.488    
        4.965       4.437       3.903       3.365       2.821       2.271       1.715       1.154      0.5859      1.1554E-02
  10    9.990       9.507       9.019       8.528       8.032       7.532       7.028       6.519       6.006       5.488    
        4.965       4.437       3.903       3.365       2.821       2.271       1.715       1.154      0.5859      1.1554E-02

 HEAD WILL BE SAVED ON UNIT   51 AT END OF TIME STEP  26, STRESS PERIOD    2

 DRAWDOWN WILL BE SAVED ON UNIT   52 AT END OF TIME STEP  26, STRESS PERIOD    2
1
  VOLUMETRIC BUDGET FOR ENTIRE MODEL AT END OF TIME STEP 26 IN STRESS PERIOD   2
  ------------------------------------------------------------------------------

     CUMULATIVE VOLUMES      L**3       RATES FOR THIS TIME STEP      L**3/T
     ------------------                 ------------------------

           IN:                                      IN:
           ---                                      ---
             STORAGE =       6.2855E-02               STORAGE =       2.4033E-03
       CONSTANT HEAD =           0.0000         CONSTANT HEAD =           0.0000
               WELLS =           0.0000                 WELLS =           0.0000
     HEAD DEP BOUNDS =       15597.9531       HEAD DEP BOUNDS =         577.7015

            TOTAL IN =       15598.0156              TOTAL IN =         577.7039

          OUT:                                     OUT:
          ----                                     ----
             STORAGE =       4.6387E-02               STORAGE =       1.8311E-03
       CONSTANT HEAD =           0.0000         CONSTANT HEAD =           0.0000
               WELLS =           0.0000                 WELLS =           0.0000
     HEAD DEP BOUNDS =       15598.4287       HEAD DEP BOUNDS =         577.7195

           TOTAL OUT =       15598.4746             TOTAL OUT =         577.7213

            IN - OUT =          -0.4590              IN - OUT =      -1.7456E-02

 PERCENT DISCREPANCY =           0.00     PERCENT DISCREPANCY =           0.00






          TIME SUMMARY AT END OF TIME STEP  26 IN STRESS PERIOD    2
                    SECONDS     MINUTES      HOURS       DAYS        YEARS
                    -----------------------------------------------------------
   TIME STEP LENGTH  86400.      1440.0      24.000      1.0000     2.73785E-03
 STRESS PERIOD TIME 2.24640E+06  37440.      624.00      26.000     7.11841E-02
         TOTAL TIME 2.33280E+06  38880.      648.00      27.000     7.39220E-02
1
 
 SOLVING FOR HEAD 

 OUTPUT CONTROL FOR STRESS PERIOD    2   TIME STEP  27
    SAVE HEAD FOR ALL LAYERS
    SAVE DRAWDOWN FOR ALL LAYERS
    SAVE BUDGET
    PRINT HEAD FOR ALL LAYERS
    PRINT BUDGET
 UBDSV1 SAVING "         STORAGE" ON UNIT  53 AT TIME STEP 27, STRESS PERIOD   2
 UBDSV2 SAVING "   CONSTANT HEAD" ON UNIT  53 AT TIME STEP 27, STRESS PERIOD   2
 UBDSV1 SAVING "FLOW RIGHT FACE " ON UNIT  53 AT TIME STEP 27, STRESS PERIOD   2
 UBDSV1 SAVING "FLOW FRONT FACE " ON UNIT  53 AT TIME STEP 27, STRESS PERIOD   2
1
              HEAD IN LAYER   1 AT END OF TIME STEP  27 IN STRESS PERIOD    2
  ---------------------------------------------------------------------------

            1           2           3           4           5           6           7           8           9          10
           11          12          13          14          15          16          17          18          19          20
 ........................................................................................................................
   1    9.990       9.507       9.019       8.528       8.032       7.532       7.028       6.519       6.006       5.488    
        4.965       4.437       3.903       3.365       2.821       2.271       1.715       1.154      0.5859      1.1554E-02
   2    9.990       9.507       9.019       8.528       8.032       7.532       7.028       6.519       6.006       5.488    
        4.965       4.437       3.903       3.365       2.821       2.271       1.715       1.154      0.5859      1.1554E-02
   3    9.990       9.507       9.019       8.528       8.032       7.532       7.028       6.519       6.006       5.488    
        4.965       4.437       3.903       3.365       2.821       2.271       1.715       1.154      0.5859      1.1554E-02
   4    9.990       9.507       9.019       8.528       8.032       7.532       7.028       6.519       6.006       5.488    
        4.965       4.437       3.903       3.365       2.821       2.271       1.715       1.154      0.5859      1.1554E-02
   5    9.990       9.507       9.019       8.528       8.032       7.532       7.028       6.519       6.006       5.488    
        4.965       4.437       3.903       3.365       2.821       2.271       1.715       1.154      0.5859      1.1554E-02
   6    9.990       9.507       9.019       8.528       8.032       7.532       7.028       6.519       6.006       5.488    
        4.965       4.437       3.903       3.365       2.821       2.271       1.715       1.154      0.5859      1.1554E-02
   7    9.990       9.507       9.019       8.528       8.032       7.532       7.028       6.519       6.006       5.488    
        4.965       4.437       3.903       3.365       2.821       2.271       1.715       1.154      0.5859      1.1554E-02
   8    9.990       9.507       9.019       8.528       8.032       7.532       7.028       6.519       6.006       5.488    
        4.965       4.437       3.903       3.365       2.821       2.271       1.715       1.154      0.5859      1.1554E-02
   9    9.990       9.507       9.019       8.528       8.032       7.532       7.028       6.519       6.006       5.488    
        4.965       4.437       3.903       3.365       2.821       2.271       1.715       1.154      0.5859      1.1554E-02
  10    9.990       9.507       9.019       8.528       8.032       7.532       7.028       6.519       6.006       5.488    
        4.965       4.437       3.903       3.365       2.821       2.271       1.715       1.154      0.5859      1.1554E-02

 HEAD WILL BE SAVED ON UNIT   51 AT END OF TIME STEP  27, STRESS PERIOD    2

 DRAWDOWN WILL BE SAVED ON UNIT   52 AT END OF TIME STEP  27, STRESS PERIOD    2
1
  VOLUMETRIC BUDGET FOR ENTIRE MODEL AT END OF TIME STEP 27 IN STRESS PERIOD   2
  ------------------------------------------------------------------------------

     CUMULATIVE VOLUMES      L**3       RATES FOR THIS TIME STEP      L**3/T
     ------------------                 ------------------------

           IN:                                      IN:
           ---                                      ---
             STORAGE =       6.5259E-02               STORAGE =       2.4033E-03
       CONSTANT HEAD =           0.0000         CONSTANT HEAD =           0.0000
               WELLS =           0.0000                 WELLS =           0.0000
     HEAD DEP BOUNDS =       16175.6543       HEAD DEP BOUNDS =         577.7015

            TOTAL IN =       16175.7197              TOTAL IN =         577.7039

          OUT:                                     OUT:
          ----                                     ----
             STORAGE =       4.8218E-02               STORAGE =       1.8311E-03
       CONSTANT HEAD =           0.0000         CONSTANT HEAD =           0.0000
               WELLS =           0.0000                 WELLS =           0.0000
     HEAD DEP BOUNDS =       16176.1484       HEAD DEP BOUNDS =         577.7195

           TOTAL OUT =       16176.1963             TOTAL OUT =         577.7213

            IN - OUT =          -0.4766              IN - OUT =      -1.7456E-02

 PERCENT DISCREPANCY =           0.00     PERCENT DISCREPANCY =           0.00






          TIME SUMMARY AT END OF TIME STEP  27 IN STRESS PERIOD    2
                    SECONDS     MINUTES      HOURS       DAYS        YEARS
                    -----------------------------------------------------------
   TIME STEP LENGTH  86400.      1440.0      24.000      1.0000     2.73785E-03
 STRESS PERIOD TIME 2.33280E+06  38880.      648.00      27.000     7.39220E-02
         TOTAL TIME 2.41920E+06  40320.      672.00      28.000     7.66598E-02
1
 
 SOLVING FOR HEAD 

 OUTPUT CONTROL FOR STRESS PERIOD    2   TIME STEP  28
    SAVE HEAD FOR ALL LAYERS
    SAVE DRAWDOWN FOR ALL LAYERS
    SAVE BUDGET
    PRINT HEAD FOR ALL LAYERS
    PRINT BUDGET
 UBDSV1 SAVING "         STORAGE" ON UNIT  53 AT TIME STEP 28, STRESS PERIOD   2
 UBDSV2 SAVING "   CONSTANT HEAD" ON UNIT  53 AT TIME STEP 28, STRESS PERIOD   2
 UBDSV1 SAVING "FLOW RIGHT FACE " ON UNIT  53 AT TIME STEP 28, STRESS PERIOD   2
 UBDSV1 SAVING "FLOW FRONT FACE " ON UNIT  53 AT TIME STEP 28, STRESS PERIOD   2
1
              HEAD IN LAYER   1 AT END OF TIME STEP  28 IN STRESS PERIOD    2
  ---------------------------------------------------------------------------

            1           2           3           4           5           6           7           8           9          10
           11          12          13          14          15          16          17          18          19          20
 ........................................................................................................................
   1    9.990       9.507       9.019       8.528       8.032       7.532       7.028       6.519       6.006       5.488    
        4.965       4.437       3.903       3.365       2.821       2.271       1.715       1.154      0.5859      1.1554E-02
   2    9.990       9.507       9.019       8.528       8.032       7.532       7.028       6.519       6.006       5.488    
        4.965       4.437       3.903       3.365       2.821       2.271       1.715       1.154      0.5859      1.1554E-02
   3    9.990       9.507       9.019       8.528       8.032       7.532       7.028       6.519       6.006       5.488    
        4.965       4.437       3.903       3.365       2.821       2.271       1.715       1.154      0.5859      1.1554E-02
   4    9.990       9.507       9.019       8.528       8.032       7.532       7.028       6.519       6.006       5.488    
        4.965       4.437       3.903       3.365       2.821       2.271       1.715       1.154      0.5859      1.1554E-02
   5    9.990       9.507       9.019       8.528       8.032       7.532       7.028       6.519       6.006       5.488    
        4.965       4.437       3.903       3.365       2.821       2.271       1.715       1.154      0.5859      1.1554E-02
   6    9.990       9.507       9.019       8.528       8.032       7.532       7.028       6.519       6.006       5.488    
        4.965       4.437       3.903       3.365       2.821       2.271       1.715       1.154      0.5859      1.1554E-02
   7    9.990       9.507       9.019       8.528       8.032       7.532       7.028       6.519       6.006       5.488    
        4.965       4.437       3.903       3.365       2.821       2.271       1.715       1.154      0.5859      1.1554E-02
   8    9.990       9.507       9.019       8.528       8.032       7.532       7.028       6.519       6.006       5.488    
        4.965       4.437       3.903       3.365       2.821       2.271       1.715       1.154      0.5859      1.1554E-02
   9    9.990       9.507       9.019       8.528       8.032       7.532       7.028       6.519       6.006       5.488    
        4.965       4.437       3.903       3.365       2.821       2.271       1.715       1.154      0.5859      1.1554E-02
  10    9.990       9.507       9.019       8.528       8.032       7.532       7.028       6.519       6.006       5.488    
        4.965       4.437       3.903       3.365       2.821       2.271       1.715       1.154      0.5859      1.1554E-02

 HEAD WILL BE SAVED ON UNIT   51 AT END OF TIME STEP  28, STRESS PERIOD    2

 DRAWDOWN WILL BE SAVED ON UNIT   52 AT END OF TIME STEP  28, STRESS PERIOD    2
1
  VOLUMETRIC BUDGET FOR ENTIRE MODEL AT END OF TIME STEP 28 IN STRESS PERIOD   2
  ------------------------------------------------------------------------------

     CUMULATIVE VOLUMES      L**3       RATES FOR THIS TIME STEP      L**3/T
     ------------------                 ------------------------

           IN:                                      IN:
           ---                                      ---
             STORAGE =       6.7662E-02               STORAGE =       2.4033E-03
       CONSTANT HEAD =           0.0000         CONSTANT HEAD =           0.0000
               WELLS =           0.0000                 WELLS =           0.0000
     HEAD DEP BOUNDS =       16753.3555       HEAD DEP BOUNDS =         577.7015

            TOTAL IN =       16753.4238              TOTAL IN =         577.7039

          OUT:                                     OUT:
          ----                                     ----
             STORAGE =       5.0049E-02               STORAGE =       1.8311E-03
       CONSTANT HEAD =           0.0000         CONSTANT HEAD =           0.0000
               WELLS =           0.0000                 WELLS =           0.0000
     HEAD DEP BOUNDS =       16753.8672       HEAD DEP BOUNDS =         577.7195

           TOTAL OUT =       16753.9180             TOTAL OUT =         577.7213

            IN - OUT =          -0.4941              IN - OUT =      -1.7456E-02

 PERCENT DISCREPANCY =           0.00     PERCENT DISCREPANCY =           0.00






          TIME SUMMARY AT END OF TIME STEP  28 IN STRESS PERIOD    2
                    SECONDS     MINUTES      HOURS       DAYS        YEARS
                    -----------------------------------------------------------
   TIME STEP LENGTH  86400.      1440.0      24.000      1.0000     2.73785E-03
 STRESS PERIOD TIME 2.41920E+06  40320.      672.00      28.000     7.66598E-02
         TOTAL TIME 2.50560E+06  41760.      696.00      29.000     7.93977E-02
1
 
 SOLVING FOR HEAD 

 OUTPUT CONTROL FOR STRESS PERIOD    2   TIME STEP  29
    SAVE HEAD FOR ALL LAYERS
    SAVE DRAWDOWN FOR ALL LAYERS
    SAVE BUDGET
    PRINT HEAD FOR ALL LAYERS
    PRINT BUDGET
 UBDSV1 SAVING "         STORAGE" ON UNIT  53 AT TIME STEP 29, STRESS PERIOD   2
 UBDSV2 SAVING "   CONSTANT HEAD" ON UNIT  53 AT TIME STEP 29, STRESS PERIOD   2
 UBDSV1 SAVING "FLOW RIGHT FACE " ON UNIT  53 AT TIME STEP 29, STRESS PERIOD   2
 UBDSV1 SAVING "FLOW FRONT FACE " ON UNIT  53 AT TIME STEP 29, STRESS PERIOD   2
1
              HEAD IN LAYER   1 AT END OF TIME STEP  29 IN STRESS PERIOD    2
  ---------------------------------------------------------------------------

            1           2           3           4           5           6           7           8           9          10
           11          12          13          14          15          16          17          18          19          20
 ........................................................................................................................
   1    9.990       9.507       9.019       8.528       8.032       7.532       7.028       6.519       6.006       5.488    
        4.965       4.437       3.903       3.365       2.821       2.271       1.715       1.154      0.5859      1.1554E-02
   2    9.990       9.507       9.019       8.528       8.032       7.532       7.028       6.519       6.006       5.488    
        4.965       4.437       3.903       3.365       2.821       2.271       1.715       1.154      0.5859      1.1554E-02
   3    9.990       9.507       9.019       8.528       8.032       7.532       7.028       6.519       6.006       5.488    
        4.965       4.437       3.903       3.365       2.821       2.271       1.715       1.154      0.5859      1.1554E-02
   4    9.990       9.507       9.019       8.528       8.032       7.532       7.028       6.519       6.006       5.488    
        4.965       4.437       3.903       3.365       2.821       2.271       1.715       1.154      0.5859      1.1554E-02
   5    9.990       9.507       9.019       8.528       8.032       7.532       7.028       6.519       6.006       5.488    
        4.965       4.437       3.903       3.365       2.821       2.271       1.715       1.154      0.5859      1.1554E-02
   6    9.990       9.507       9.019       8.528       8.032       7.532       7.028       6.519       6.006       5.488    
        4.965       4.437       3.903       3.365       2.821       2.271       1.715       1.154      0.5859      1.1554E-02
   7    9.990       9.507       9.019       8.528       8.032       7.532       7.028       6.519       6.006       5.488    
        4.965       4.437       3.903       3.365       2.821       2.271       1.715       1.154      0.5859      1.1554E-02
   8    9.990       9.507       9.019       8.528       8.032       7.532       7.028       6.519       6.006       5.488    
        4.965       4.437       3.903       3.365       2.821       2.271       1.715       1.154      0.5859      1.1554E-02
   9    9.990       9.507       9.019       8.528       8.032       7.532       7.028       6.519       6.006       5.488    
        4.965       4.437       3.903       3.365       2.821       2.271       1.715       1.154      0.5859      1.1554E-02
  10    9.990       9.507       9.019       8.528       8.032       7.532       7.028       6.519       6.006       5.488    
        4.965       4.437       3.903       3.365       2.821       2.271       1.715       1.154      0.5859      1.1554E-02

 HEAD WILL BE SAVED ON UNIT   51 AT END OF TIME STEP  29, STRESS PERIOD    2

 DRAWDOWN WILL BE SAVED ON UNIT   52 AT END OF TIME STEP  29, STRESS PERIOD    2
1
  VOLUMETRIC BUDGET FOR ENTIRE MODEL AT END OF TIME STEP 29 IN STRESS PERIOD   2
  ------------------------------------------------------------------------------

     CUMULATIVE VOLUMES      L**3       RATES FOR THIS TIME STEP      L**3/T
     ------------------                 ------------------------

           IN:                                      IN:
           ---                                      ---
             STORAGE =       7.0065E-02               STORAGE =       2.4033E-03
       CONSTANT HEAD =           0.0000         CONSTANT HEAD =           0.0000
               WELLS =           0.0000                 WELLS =           0.0000
     HEAD DEP BOUNDS =       17331.0566       HEAD DEP BOUNDS =         577.7015

            TOTAL IN =       17331.1270              TOTAL IN =         577.7039

          OUT:                                     OUT:
          ----                                     ----
             STORAGE =       5.1880E-02               STORAGE =       1.8311E-03
       CONSTANT HEAD =           0.0000         CONSTANT HEAD =           0.0000
               WELLS =           0.0000                 WELLS =           0.0000
     HEAD DEP BOUNDS =       17331.5859       HEAD DEP BOUNDS =         577.7195

           TOTAL OUT =       17331.6387             TOTAL OUT =         577.7213

            IN - OUT =          -0.5117              IN - OUT =      -1.7456E-02

 PERCENT DISCREPANCY =           0.00     PERCENT DISCREPANCY =           0.00






          TIME SUMMARY AT END OF TIME STEP  29 IN STRESS PERIOD    2
                    SECONDS     MINUTES      HOURS       DAYS        YEARS
                    -----------------------------------------------------------
   TIME STEP LENGTH  86400.      1440.0      24.000      1.0000     2.73785E-03
 STRESS PERIOD TIME 2.50560E+06  41760.      696.00      29.000     7.93977E-02
         TOTAL TIME 2.59200E+06  43200.      720.00      30.000     8.21355E-02
1
 
 SOLVING FOR HEAD 

 OUTPUT CONTROL FOR STRESS PERIOD    2   TIME STEP  30
    SAVE HEAD FOR ALL LAYERS
    SAVE DRAWDOWN FOR ALL LAYERS
    SAVE BUDGET
    PRINT HEAD FOR ALL LAYERS
    PRINT BUDGET
 UBDSV1 SAVING "         STORAGE" ON UNIT  53 AT TIME STEP 30, STRESS PERIOD   2
 UBDSV2 SAVING "   CONSTANT HEAD" ON UNIT  53 AT TIME STEP 30, STRESS PERIOD   2
 UBDSV1 SAVING "FLOW RIGHT FACE " ON UNIT  53 AT TIME STEP 30, STRESS PERIOD   2
 UBDSV1 SAVING "FLOW FRONT FACE " ON UNIT  53 AT TIME STEP 30, STRESS PERIOD   2
1
              HEAD IN LAYER   1 AT END OF TIME STEP  30 IN STRESS PERIOD    2
  ---------------------------------------------------------------------------

            1           2           3           4           5           6           7           8           9          10
           11          12          13          14          15          16          17          18          19          20
 ........................................................................................................................
   1    9.990       9.507       9.019       8.528       8.032       7.532       7.028       6.519       6.006       5.488    
        4.965       4.437       3.903       3.365       2.821       2.271       1.715       1.154      0.5859      1.1554E-02
   2    9.990       9.507       9.019       8.528       8.032       7.532       7.028       6.519       6.006       5.488    
        4.965       4.437       3.903       3.365       2.821       2.271       1.715       1.154      0.5859      1.1554E-02
   3    9.990       9.507       9.019       8.528       8.032       7.532       7.028       6.519       6.006       5.488    
        4.965       4.437       3.903       3.365       2.821       2.271       1.715       1.154      0.5859      1.1554E-02
   4    9.990       9.507       9.019       8.528       8.032       7.532       7.028       6.519       6.006       5.488    
        4.965       4.437       3.903       3.365       2.821       2.271       1.715       1.154      0.5859      1.1554E-02
   5    9.990       9.507       9.019       8.528       8.032       7.532       7.028       6.519       6.006       5.488    
        4.965       4.437       3.903       3.365       2.821       2.271       1.715       1.154      0.5859      1.1554E-02
   6    9.990       9.507       9.019       8.528       8.032       7.532       7.028       6.519       6.006       5.488    
        4.965       4.437       3.903       3.365       2.821       2.271       1.715       1.154      0.5859      1.1554E-02
   7    9.990       9.507       9.019       8.528       8.032       7.532       7.028       6.519       6.006       5.488    
        4.965       4.437       3.903       3.365       2.821       2.271       1.715       1.154      0.5859      1.1554E-02
   8    9.990       9.507       9.019       8.528       8.032       7.532       7.028       6.519       6.006       5.488    
        4.965       4.437       3.903       3.365       2.821       2.271       1.715       1.154      0.5859      1.1554E-02
   9    9.990       9.507       9.019       8.528       8.032       7.532       7.028       6.519       6.006       5.488    
        4.965       4.437       3.903       3.365       2.821       2.271       1.715       1.154      0.5859      1.1554E-02
  10    9.990       9.507       9.019       8.528       8.032       7.532       7.028       6.519       6.006       5.488    
        4.965       4.437       3.903       3.365       2.821       2.271       1.715       1.154      0.5859      1.1554E-02

 HEAD WILL BE SAVED ON UNIT   51 AT END OF TIME STEP  30, STRESS PERIOD    2

 DRAWDOWN WILL BE SAVED ON UNIT   52 AT END OF TIME STEP  30, STRESS PERIOD    2
1
  VOLUMETRIC BUDGET FOR ENTIRE MODEL AT END OF TIME STEP 30 IN STRESS PERIOD   2
  ------------------------------------------------------------------------------

     CUMULATIVE VOLUMES      L**3       RATES FOR THIS TIME STEP      L**3/T
     ------------------                 ------------------------

           IN:                                      IN:
           ---                                      ---
             STORAGE =       7.2468E-02               STORAGE =       2.4033E-03
       CONSTANT HEAD =           0.0000         CONSTANT HEAD =           0.0000
               WELLS =           0.0000                 WELLS =           0.0000
     HEAD DEP BOUNDS =       17908.7578       HEAD DEP BOUNDS =         577.7015

            TOTAL IN =       17908.8301              TOTAL IN =         577.7039

          OUT:                                     OUT:
          ----                                     ----
             STORAGE =       5.3711E-02               STORAGE =       1.8311E-03
       CONSTANT HEAD =           0.0000         CONSTANT HEAD =           0.0000
               WELLS =           0.0000                 WELLS =           0.0000
     HEAD DEP BOUNDS =       17909.3047       HEAD DEP BOUNDS =         577.7195

           TOTAL OUT =       17909.3594             TOTAL OUT =         577.7213

            IN - OUT =          -0.5293              IN - OUT =      -1.7456E-02

 PERCENT DISCREPANCY =           0.00     PERCENT DISCREPANCY =           0.00






          TIME SUMMARY AT END OF TIME STEP  30 IN STRESS PERIOD    2
                    SECONDS     MINUTES      HOURS       DAYS        YEARS
                    -----------------------------------------------------------
   TIME STEP LENGTH  86400.      1440.0      24.000      1.0000     2.73785E-03
 STRESS PERIOD TIME 2.59200E+06  43200.      720.00      30.000     8.21355E-02
         TOTAL TIME 2.67840E+06  44640.      744.00      31.000     8.48734E-02
1
 
 SOLVING FOR HEAD 

 OUTPUT CONTROL FOR STRESS PERIOD    2   TIME STEP  31
    SAVE HEAD FOR ALL LAYERS
    SAVE DRAWDOWN FOR ALL LAYERS
    SAVE BUDGET
    PRINT HEAD FOR ALL LAYERS
    PRINT BUDGET
 UBDSV1 SAVING "         STORAGE" ON UNIT  53 AT TIME STEP 31, STRESS PERIOD   2
 UBDSV2 SAVING "   CONSTANT HEAD" ON UNIT  53 AT TIME STEP 31, STRESS PERIOD   2
 UBDSV1 SAVING "FLOW RIGHT FACE " ON UNIT  53 AT TIME STEP 31, STRESS PERIOD   2
 UBDSV1 SAVING "FLOW FRONT FACE " ON UNIT  53 AT TIME STEP 31, STRESS PERIOD   2
1
              HEAD IN LAYER   1 AT END OF TIME STEP  31 IN STRESS PERIOD    2
  ---------------------------------------------------------------------------

            1           2           3           4           5           6           7           8           9          10
           11          12          13          14          15          16          17          18          19          20
 ........................................................................................................................
   1    9.990       9.507       9.019       8.528       8.032       7.532       7.028       6.519       6.006       5.488    
        4.965       4.437       3.903       3.365       2.821       2.271       1.715       1.154      0.5859      1.1554E-02
   2    9.990       9.507       9.019       8.528       8.032       7.532       7.028       6.519       6.006       5.488    
        4.965       4.437       3.903       3.365       2.821       2.271       1.715       1.154      0.5859      1.1554E-02
   3    9.990       9.507       9.019       8.528       8.032       7.532       7.028       6.519       6.006       5.488    
        4.965       4.437       3.903       3.365       2.821       2.271       1.715       1.154      0.5859      1.1554E-02
   4    9.990       9.507       9.019       8.528       8.032       7.532       7.028       6.519       6.006       5.488    
        4.965       4.437       3.903       3.365       2.821       2.271       1.715       1.154      0.5859      1.1554E-02
   5    9.990       9.507       9.019       8.528       8.032       7.532       7.028       6.519       6.006       5.488    
        4.965       4.437       3.903       3.365       2.821       2.271       1.715       1.154      0.5859      1.1554E-02
   6    9.990       9.507       9.019       8.528       8.032       7.532       7.028       6.519       6.006       5.488    
        4.965       4.437       3.903       3.365       2.821       2.271       1.715       1.154      0.5859      1.1554E-02
   7    9.990       9.507       9.019       8.528       8.032       7.532       7.028       6.519       6.006       5.488    
        4.965       4.437       3.903       3.365       2.821       2.271       1.715       1.154      0.5859      1.1554E-02
   8    9.990       9.507       9.019       8.528       8.032       7.532       7.028       6.519       6.006       5.488    
        4.965       4.437       3.903       3.365       2.821       2.271       1.715       1.154      0.5859      1.1554E-02
   9    9.990       9.507       9.019       8.528       8.032       7.532       7.028       6.519       6.006       5.488    
        4.965       4.437       3.903       3.365       2.821       2.271       1.715       1.154      0.5859      1.1554E-02
  10    9.990       9.507       9.019       8.528       8.032       7.532       7.028       6.519       6.006       5.488    
        4.965       4.437       3.903       3.365       2.821       2.271       1.715       1.154      0.5859      1.1554E-02

 HEAD WILL BE SAVED ON UNIT   51 AT END OF TIME STEP  31, STRESS PERIOD    2

 DRAWDOWN WILL BE SAVED ON UNIT   52 AT END OF TIME STEP  31, STRESS PERIOD    2
1
  VOLUMETRIC BUDGET FOR ENTIRE MODEL AT END OF TIME STEP 31 IN STRESS PERIOD   2
  ------------------------------------------------------------------------------

     CUMULATIVE VOLUMES      L**3       RATES FOR THIS TIME STEP      L**3/T
     ------------------                 ------------------------

           IN:                                      IN:
           ---                                      ---
             STORAGE =       7.4872E-02               STORAGE =       2.4033E-03
       CONSTANT HEAD =           0.0000         CONSTANT HEAD =           0.0000
               WELLS =           0.0000                 WELLS =           0.0000
     HEAD DEP BOUNDS =       18486.4590       HEAD DEP BOUNDS =         577.7015

            TOTAL IN =       18486.5332              TOTAL IN =         577.7039

          OUT:                                     OUT:
          ----                                     ----
             STORAGE =       5.5542E-02               STORAGE =       1.8311E-03
       CONSTANT HEAD =           0.0000         CONSTANT HEAD =           0.0000
               WELLS =           0.0000                 WELLS =           0.0000
     HEAD DEP BOUNDS =       18487.0234       HEAD DEP BOUNDS =         577.7195

           TOTAL OUT =       18487.0781             TOTAL OUT =         577.7213

            IN - OUT =          -0.5449              IN - OUT =      -1.7456E-02

 PERCENT DISCREPANCY =           0.00     PERCENT DISCREPANCY =           0.00






          TIME SUMMARY AT END OF TIME STEP  31 IN STRESS PERIOD    2
                    SECONDS     MINUTES      HOURS       DAYS        YEARS
                    -----------------------------------------------------------
   TIME STEP LENGTH  86400.      1440.0      24.000      1.0000     2.73785E-03
 STRESS PERIOD TIME 2.67840E+06  44640.      744.00      31.000     8.48734E-02
         TOTAL TIME 2.76480E+06  46080.      768.00      32.000     8.76112E-02
1
 
 SOLVING FOR HEAD 

 OUTPUT CONTROL FOR STRESS PERIOD    2   TIME STEP  32
    SAVE HEAD FOR ALL LAYERS
    SAVE DRAWDOWN FOR ALL LAYERS
    SAVE BUDGET
    PRINT HEAD FOR ALL LAYERS
    PRINT BUDGET
 UBDSV1 SAVING "         STORAGE" ON UNIT  53 AT TIME STEP 32, STRESS PERIOD   2
 UBDSV2 SAVING "   CONSTANT HEAD" ON UNIT  53 AT TIME STEP 32, STRESS PERIOD   2
 UBDSV1 SAVING "FLOW RIGHT FACE " ON UNIT  53 AT TIME STEP 32, STRESS PERIOD   2
 UBDSV1 SAVING "FLOW FRONT FACE " ON UNIT  53 AT TIME STEP 32, STRESS PERIOD   2
1
              HEAD IN LAYER   1 AT END OF TIME STEP  32 IN STRESS PERIOD    2
  ---------------------------------------------------------------------------

            1           2           3           4           5           6           7           8           9          10
           11          12          13          14          15          16          17          18          19          20
 ........................................................................................................................
   1    9.990       9.507       9.019       8.528       8.032       7.532       7.028       6.519       6.006       5.488    
        4.965       4.437       3.903       3.365       2.821       2.271       1.715       1.154      0.5859      1.1554E-02
   2    9.990       9.507       9.019       8.528       8.032       7.532       7.028       6.519       6.006       5.488    
        4.965       4.437       3.903       3.365       2.821       2.271       1.715       1.154      0.5859      1.1554E-02
   3    9.990       9.507       9.019       8.528       8.032       7.532       7.028       6.519       6.006       5.488    
        4.965       4.437       3.903       3.365       2.821       2.271       1.715       1.154      0.5859      1.1554E-02
   4    9.990       9.507       9.019       8.528       8.032       7.532       7.028       6.519       6.006       5.488    
        4.965       4.437       3.903       3.365       2.821       2.271       1.715       1.154      0.5859      1.1554E-02
   5    9.990       9.507       9.019       8.528       8.032       7.532       7.028       6.519       6.006       5.488    
        4.965       4.437       3.903       3.365       2.821       2.271       1.715       1.154      0.5859      1.1554E-02
   6    9.990       9.507       9.019       8.528       8.032       7.532       7.028       6.519       6.006       5.488    
        4.965       4.437       3.903       3.365       2.821       2.271       1.715       1.154      0.5859      1.1554E-02
   7    9.990       9.507       9.019       8.528       8.032       7.532       7.028       6.519       6.006       5.488    
        4.965       4.437       3.903       3.365       2.821       2.271       1.715       1.154      0.5859      1.1554E-02
   8    9.990       9.507       9.019       8.528       8.032       7.532       7.028       6.519       6.006       5.488    
        4.965       4.437       3.903       3.365       2.821       2.271       1.715       1.154      0.5859      1.1554E-02
   9    9.990       9.507       9.019       8.528       8.032       7.532       7.028       6.519       6.006       5.488    
        4.965       4.437       3.903       3.365       2.821       2.271       1.715       1.154      0.5859      1.1554E-02
  10    9.990       9.507       9.019       8.528       8.032       7.532       7.028       6.519       6.006       5.488    
        4.965       4.437       3.903       3.365       2.821       2.271       1.715       1.154      0.5859      1.1554E-02

 HEAD WILL BE SAVED ON UNIT   51 AT END OF TIME STEP  32, STRESS PERIOD    2

 DRAWDOWN WILL BE SAVED ON UNIT   52 AT END OF TIME STEP  32, STRESS PERIOD    2
1
  VOLUMETRIC BUDGET FOR ENTIRE MODEL AT END OF TIME STEP 32 IN STRESS PERIOD   2
  ------------------------------------------------------------------------------

     CUMULATIVE VOLUMES      L**3       RATES FOR THIS TIME STEP      L**3/T
     ------------------                 ------------------------

           IN:                                      IN:
           ---                                      ---
             STORAGE =       7.7275E-02               STORAGE =       2.4033E-03
       CONSTANT HEAD =           0.0000         CONSTANT HEAD =           0.0000
               WELLS =           0.0000                 WELLS =           0.0000
     HEAD DEP BOUNDS =       19064.1602       HEAD DEP BOUNDS =         577.7015

            TOTAL IN =       19064.2383              TOTAL IN =         577.7039

          OUT:                                     OUT:
          ----                                     ----
             STORAGE =       5.7373E-02               STORAGE =       1.8311E-03
       CONSTANT HEAD =           0.0000         CONSTANT HEAD =           0.0000
               WELLS =           0.0000                 WELLS =           0.0000
     HEAD DEP BOUNDS =       19064.7422       HEAD DEP BOUNDS =         577.7195

           TOTAL OUT =       19064.7988             TOTAL OUT =         577.7213

            IN - OUT =          -0.5605              IN - OUT =      -1.7456E-02

 PERCENT DISCREPANCY =           0.00     PERCENT DISCREPANCY =           0.00






          TIME SUMMARY AT END OF TIME STEP  32 IN STRESS PERIOD    2
                    SECONDS     MINUTES      HOURS       DAYS        YEARS
                    -----------------------------------------------------------
   TIME STEP LENGTH  86400.      1440.0      24.000      1.0000     2.73785E-03
 STRESS PERIOD TIME 2.76480E+06  46080.      768.00      32.000     8.76112E-02
         TOTAL TIME 2.85120E+06  47520.      792.00      33.000     9.03491E-02
1
 
 SOLVING FOR HEAD 

 OUTPUT CONTROL FOR STRESS PERIOD    2   TIME STEP  33
    SAVE HEAD FOR ALL LAYERS
    SAVE DRAWDOWN FOR ALL LAYERS
    SAVE BUDGET
    PRINT HEAD FOR ALL LAYERS
    PRINT BUDGET
 UBDSV1 SAVING "         STORAGE" ON UNIT  53 AT TIME STEP 33, STRESS PERIOD   2
 UBDSV2 SAVING "   CONSTANT HEAD" ON UNIT  53 AT TIME STEP 33, STRESS PERIOD   2
 UBDSV1 SAVING "FLOW RIGHT FACE " ON UNIT  53 AT TIME STEP 33, STRESS PERIOD   2
 UBDSV1 SAVING "FLOW FRONT FACE " ON UNIT  53 AT TIME STEP 33, STRESS PERIOD   2
1
              HEAD IN LAYER   1 AT END OF TIME STEP  33 IN STRESS PERIOD    2
  ---------------------------------------------------------------------------

            1           2           3           4           5           6           7           8           9          10
           11          12          13          14          15          16          17          18          19          20
 ........................................................................................................................
   1    9.990       9.507       9.019       8.528       8.032       7.532       7.028       6.519       6.006       5.488    
        4.965       4.437       3.903       3.365       2.821       2.271       1.715       1.154      0.5859      1.1554E-02
   2    9.990       9.507       9.019       8.528       8.032       7.532       7.028       6.519       6.006       5.488    
        4.965       4.437       3.903       3.365       2.821       2.271       1.715       1.154      0.5859      1.1554E-02
   3    9.990       9.507       9.019       8.528       8.032       7.532       7.028       6.519       6.006       5.488    
        4.965       4.437       3.903       3.365       2.821       2.271       1.715       1.154      0.5859      1.1554E-02
   4    9.990       9.507       9.019       8.528       8.032       7.532       7.028       6.519       6.006       5.488    
        4.965       4.437       3.903       3.365       2.821       2.271       1.715       1.154      0.5859      1.1554E-02
   5    9.990       9.507       9.019       8.528       8.032       7.532       7.028       6.519       6.006       5.488    
        4.965       4.437       3.903       3.365       2.821       2.271       1.715       1.154      0.5859      1.1554E-02
   6    9.990       9.507       9.019       8.528       8.032       7.532       7.028       6.519       6.006       5.488    
        4.965       4.437       3.903       3.365       2.821       2.271       1.715       1.154      0.5859      1.1554E-02
   7    9.990       9.507       9.019       8.528       8.032       7.532       7.028       6.519       6.006       5.488    
        4.965       4.437       3.903       3.365       2.821       2.271       1.715       1.154      0.5859      1.1554E-02
   8    9.990       9.507       9.019       8.528       8.032       7.532       7.028       6.519       6.006       5.488    
        4.965       4.437       3.903       3.365       2.821       2.271       1.715       1.154      0.5859      1.1554E-02
   9    9.990       9.507       9.019       8.528       8.032       7.532       7.028       6.519       6.006       5.488    
        4.965       4.437       3.903       3.365       2.821       2.271       1.715       1.154      0.5859      1.1554E-02
  10    9.990       9.507       9.019       8.528       8.032       7.532       7.028       6.519       6.006       5.488    
        4.965       4.437       3.903       3.365       2.821       2.271       1.715       1.154      0.5859      1.1554E-02

 HEAD WILL BE SAVED ON UNIT   51 AT END OF TIME STEP  33, STRESS PERIOD    2

 DRAWDOWN WILL BE SAVED ON UNIT   52 AT END OF TIME STEP  33, STRESS PERIOD    2
1
  VOLUMETRIC BUDGET FOR ENTIRE MODEL AT END OF TIME STEP 33 IN STRESS PERIOD   2
  ------------------------------------------------------------------------------

     CUMULATIVE VOLUMES      L**3       RATES FOR THIS TIME STEP      L**3/T
     ------------------                 ------------------------

           IN:                                      IN:
           ---                                      ---
             STORAGE =       7.9678E-02               STORAGE =       2.4033E-03
       CONSTANT HEAD =           0.0000         CONSTANT HEAD =           0.0000
               WELLS =           0.0000                 WELLS =           0.0000
     HEAD DEP BOUNDS =       19641.8613       HEAD DEP BOUNDS =         577.7015

            TOTAL IN =       19641.9414              TOTAL IN =         577.7039

          OUT:                                     OUT:
          ----                                     ----
             STORAGE =       5.9204E-02               STORAGE =       1.8311E-03
       CONSTANT HEAD =           0.0000         CONSTANT HEAD =           0.0000
               WELLS =           0.0000                 WELLS =           0.0000
     HEAD DEP BOUNDS =       19642.4609       HEAD DEP BOUNDS =         577.7195

           TOTAL OUT =       19642.5195             TOTAL OUT =         577.7213

            IN - OUT =          -0.5781              IN - OUT =      -1.7456E-02

 PERCENT DISCREPANCY =           0.00     PERCENT DISCREPANCY =           0.00






          TIME SUMMARY AT END OF TIME STEP  33 IN STRESS PERIOD    2
                    SECONDS     MINUTES      HOURS       DAYS        YEARS
                    -----------------------------------------------------------
   TIME STEP LENGTH  86400.      1440.0      24.000      1.0000     2.73785E-03
 STRESS PERIOD TIME 2.85120E+06  47520.      792.00      33.000     9.03491E-02
         TOTAL TIME 2.93760E+06  48960.      816.00      34.000     9.30869E-02
1
 
 SOLVING FOR HEAD 

 OUTPUT CONTROL FOR STRESS PERIOD    2   TIME STEP  34
    SAVE HEAD FOR ALL LAYERS
    SAVE DRAWDOWN FOR ALL LAYERS
    SAVE BUDGET
    PRINT HEAD FOR ALL LAYERS
    PRINT BUDGET
 UBDSV1 SAVING "         STORAGE" ON UNIT  53 AT TIME STEP 34, STRESS PERIOD   2
 UBDSV2 SAVING "   CONSTANT HEAD" ON UNIT  53 AT TIME STEP 34, STRESS PERIOD   2
 UBDSV1 SAVING "FLOW RIGHT FACE " ON UNIT  53 AT TIME STEP 34, STRESS PERIOD   2
 UBDSV1 SAVING "FLOW FRONT FACE " ON UNIT  53 AT TIME STEP 34, STRESS PERIOD   2
1
              HEAD IN LAYER   1 AT END OF TIME STEP  34 IN STRESS PERIOD    2
  ---------------------------------------------------------------------------

            1           2           3           4           5           6           7           8           9          10
           11          12          13          14          15          16          17          18          19          20
 ........................................................................................................................
   1    9.990       9.507       9.019       8.528       8.032       7.532       7.028       6.519       6.006       5.488    
        4.965       4.437       3.903       3.365       2.821       2.271       1.715       1.154      0.5859      1.1554E-02
   2    9.990       9.507       9.019       8.528       8.032       7.532       7.028       6.519       6.006       5.488    
        4.965       4.437       3.903       3.365       2.821       2.271       1.715       1.154      0.5859      1.1554E-02
   3    9.990       9.507       9.019       8.528       8.032       7.532       7.028       6.519       6.006       5.488    
        4.965       4.437       3.903       3.365       2.821       2.271       1.715       1.154      0.5859      1.1554E-02
   4    9.990       9.507       9.019       8.528       8.032       7.532       7.028       6.519       6.006       5.488    
        4.965       4.437       3.903       3.365       2.821       2.271       1.715       1.154      0.5859      1.1554E-02
   5    9.990       9.507       9.019       8.528       8.032       7.532       7.028       6.519       6.006       5.488    
        4.965       4.437       3.903       3.365       2.821       2.271       1.715       1.154      0.5859      1.1554E-02
   6    9.990       9.507       9.019       8.528       8.032       7.532       7.028       6.519       6.006       5.488    
        4.965       4.437       3.903       3.365       2.821       2.271       1.715       1.154      0.5859      1.1554E-02
   7    9.990       9.507       9.019       8.528       8.032       7.532       7.028       6.519       6.006       5.488    
        4.965       4.437       3.903       3.365       2.821       2.271       1.715       1.154      0.5859      1.1554E-02
   8    9.990       9.507       9.019       8.528       8.032       7.532       7.028       6.519       6.006       5.488    
        4.965       4.437       3.903       3.365       2.821       2.271       1.715       1.154      0.5859      1.1554E-02
   9    9.990       9.507       9.019       8.528       8.032       7.532       7.028       6.519       6.006       5.488    
        4.965       4.437       3.903       3.365       2.821       2.271       1.715       1.154      0.5859      1.1554E-02
  10    9.990       9.507       9.019       8.528       8.032       7.532       7.028       6.519       6.006       5.488    
        4.965       4.437       3.903       3.365       2.821       2.271       1.715       1.154      0.5859      1.1554E-02

 HEAD WILL BE SAVED ON UNIT   51 AT END OF TIME STEP  34, STRESS PERIOD    2

 DRAWDOWN WILL BE SAVED ON UNIT   52 AT END OF TIME STEP  34, STRESS PERIOD    2
1
  VOLUMETRIC BUDGET FOR ENTIRE MODEL AT END OF TIME STEP 34 IN STRESS PERIOD   2
  ------------------------------------------------------------------------------

     CUMULATIVE VOLUMES      L**3       RATES FOR THIS TIME STEP      L**3/T
     ------------------                 ------------------------

           IN:                                      IN:
           ---                                      ---
             STORAGE =       8.2081E-02               STORAGE =       2.4033E-03
       CONSTANT HEAD =           0.0000         CONSTANT HEAD =           0.0000
               WELLS =           0.0000                 WELLS =           0.0000
     HEAD DEP BOUNDS =       20219.5625       HEAD DEP BOUNDS =         577.7015

            TOTAL IN =       20219.6445              TOTAL IN =         577.7039

          OUT:                                     OUT:
          ----                                     ----
             STORAGE =       6.1035E-02               STORAGE =       1.8311E-03
       CONSTANT HEAD =           0.0000         CONSTANT HEAD =           0.0000
               WELLS =           0.0000                 WELLS =           0.0000
     HEAD DEP BOUNDS =       20220.1797       HEAD DEP BOUNDS =         577.7195

           TOTAL OUT =       20220.2402             TOTAL OUT =         577.7213

            IN - OUT =          -0.5957              IN - OUT =      -1.7456E-02

 PERCENT DISCREPANCY =           0.00     PERCENT DISCREPANCY =           0.00






          TIME SUMMARY AT END OF TIME STEP  34 IN STRESS PERIOD    2
                    SECONDS     MINUTES      HOURS       DAYS        YEARS
                    -----------------------------------------------------------
   TIME STEP LENGTH  86400.      1440.0      24.000      1.0000     2.73785E-03
 STRESS PERIOD TIME 2.93760E+06  48960.      816.00      34.000     9.30869E-02
         TOTAL TIME 3.02400E+06  50400.      840.00      35.000     9.58248E-02
1
 
 SOLVING FOR HEAD 

 OUTPUT CONTROL FOR STRESS PERIOD    2   TIME STEP  35
    SAVE HEAD FOR ALL LAYERS
    SAVE DRAWDOWN FOR ALL LAYERS
    SAVE BUDGET
    PRINT HEAD FOR ALL LAYERS
    PRINT BUDGET
 UBDSV1 SAVING "         STORAGE" ON UNIT  53 AT TIME STEP 35, STRESS PERIOD   2
 UBDSV2 SAVING "   CONSTANT HEAD" ON UNIT  53 AT TIME STEP 35, STRESS PERIOD   2
 UBDSV1 SAVING "FLOW RIGHT FACE " ON UNIT  53 AT TIME STEP 35, STRESS PERIOD   2
 UBDSV1 SAVING "FLOW FRONT FACE " ON UNIT  53 AT TIME STEP 35, STRESS PERIOD   2
1
              HEAD IN LAYER   1 AT END OF TIME STEP  35 IN STRESS PERIOD    2
  ---------------------------------------------------------------------------

            1           2           3           4           5           6           7           8           9          10
           11          12          13          14          15          16          17          18          19          20
 ........................................................................................................................
   1    9.990       9.507       9.019       8.528       8.032       7.532       7.028       6.519       6.006       5.488    
        4.965       4.437       3.903       3.365       2.821       2.271       1.715       1.154      0.5859      1.1554E-02
   2    9.990       9.507       9.019       8.528       8.032       7.532       7.028       6.519       6.006       5.488    
        4.965       4.437       3.903       3.365       2.821       2.271       1.715       1.154      0.5859      1.1554E-02
   3    9.990       9.507       9.019       8.528       8.032       7.532       7.028       6.519       6.006       5.488    
        4.965       4.437       3.903       3.365       2.821       2.271       1.715       1.154      0.5859      1.1554E-02
   4    9.990       9.507       9.019       8.528       8.032       7.532       7.028       6.519       6.006       5.488    
        4.965       4.437       3.903       3.365       2.821       2.271       1.715       1.154      0.5859      1.1554E-02
   5    9.990       9.507       9.019       8.528       8.032       7.532       7.028       6.519       6.006       5.488    
        4.965       4.437       3.903       3.365       2.821       2.271       1.715       1.154      0.5859      1.1554E-02
   6    9.990       9.507       9.019       8.528       8.032       7.532       7.028       6.519       6.006       5.488    
        4.965       4.437       3.903       3.365       2.821       2.271       1.715       1.154      0.5859      1.1554E-02
   7    9.990       9.507       9.019       8.528       8.032       7.532       7.028       6.519       6.006       5.488    
        4.965       4.437       3.903       3.365       2.821       2.271       1.715       1.154      0.5859      1.1554E-02
   8    9.990       9.507       9.019       8.528       8.032       7.532       7.028       6.519       6.006       5.488    
        4.965       4.437       3.903       3.365       2.821       2.271       1.715       1.154      0.5859      1.1554E-02
   9    9.990       9.507       9.019       8.528       8.032       7.532       7.028       6.519       6.006       5.488    
        4.965       4.437       3.903       3.365       2.821       2.271       1.715       1.154      0.5859      1.1554E-02
  10    9.990       9.507       9.019       8.528       8.032       7.532       7.028       6.519       6.006       5.488    
        4.965       4.437       3.903       3.365       2.821       2.271       1.715       1.154      0.5859      1.1554E-02

 HEAD WILL BE SAVED ON UNIT   51 AT END OF TIME STEP  35, STRESS PERIOD    2

 DRAWDOWN WILL BE SAVED ON UNIT   52 AT END OF TIME STEP  35, STRESS PERIOD    2
1
  VOLUMETRIC BUDGET FOR ENTIRE MODEL AT END OF TIME STEP 35 IN STRESS PERIOD   2
  ------------------------------------------------------------------------------

     CUMULATIVE VOLUMES      L**3       RATES FOR THIS TIME STEP      L**3/T
     ------------------                 ------------------------

           IN:                                      IN:
           ---                                      ---
             STORAGE =       8.4485E-02               STORAGE =       2.4033E-03
       CONSTANT HEAD =           0.0000         CONSTANT HEAD =           0.0000
               WELLS =           0.0000                 WELLS =           0.0000
     HEAD DEP BOUNDS =       20797.2637       HEAD DEP BOUNDS =         577.7015

            TOTAL IN =       20797.3477              TOTAL IN =         577.7039

          OUT:                                     OUT:
          ----                                     ----
             STORAGE =       6.2866E-02               STORAGE =       1.8311E-03
       CONSTANT HEAD =           0.0000         CONSTANT HEAD =           0.0000
               WELLS =           0.0000                 WELLS =           0.0000
     HEAD DEP BOUNDS =       20797.8984       HEAD DEP BOUNDS =         577.7195

           TOTAL OUT =       20797.9609             TOTAL OUT =         577.7213

            IN - OUT =          -0.6133              IN - OUT =      -1.7456E-02

 PERCENT DISCREPANCY =           0.00     PERCENT DISCREPANCY =           0.00






          TIME SUMMARY AT END OF TIME STEP  35 IN STRESS PERIOD    2
                    SECONDS     MINUTES      HOURS       DAYS        YEARS
                    -----------------------------------------------------------
   TIME STEP LENGTH  86400.      1440.0      24.000      1.0000     2.73785E-03
 STRESS PERIOD TIME 3.02400E+06  50400.      840.00      35.000     9.58248E-02
         TOTAL TIME 3.11040E+06  51840.      864.00      36.000     9.85626E-02
1
 
 SOLVING FOR HEAD 

 OUTPUT CONTROL FOR STRESS PERIOD    2   TIME STEP  36
    SAVE HEAD FOR ALL LAYERS
    SAVE DRAWDOWN FOR ALL LAYERS
    SAVE BUDGET
    PRINT HEAD FOR ALL LAYERS
    PRINT BUDGET
 UBDSV1 SAVING "         STORAGE" ON UNIT  53 AT TIME STEP 36, STRESS PERIOD   2
 UBDSV2 SAVING "   CONSTANT HEAD" ON UNIT  53 AT TIME STEP 36, STRESS PERIOD   2
 UBDSV1 SAVING "FLOW RIGHT FACE " ON UNIT  53 AT TIME STEP 36, STRESS PERIOD   2
 UBDSV1 SAVING "FLOW FRONT FACE " ON UNIT  53 AT TIME STEP 36, STRESS PERIOD   2
1
              HEAD IN LAYER   1 AT END OF TIME STEP  36 IN STRESS PERIOD    2
  ---------------------------------------------------------------------------

            1           2           3           4           5           6           7           8           9          10
           11          12          13          14          15          16          17          18          19          20
 ........................................................................................................................
   1    9.990       9.507       9.019       8.528       8.032       7.532       7.028       6.519       6.006       5.488    
        4.965       4.437       3.903       3.365       2.821       2.271       1.715       1.154      0.5859      1.1554E-02
   2    9.990       9.507       9.019       8.528       8.032       7.532       7.028       6.519       6.006       5.488    
        4.965       4.437       3.903       3.365       2.821       2.271       1.715       1.154      0.5859      1.1554E-02
   3    9.990       9.507       9.019       8.528       8.032       7.532       7.028       6.519       6.006       5.488    
        4.965       4.437       3.903       3.365       2.821       2.271       1.715       1.154      0.5859      1.1554E-02
   4    9.990       9.507       9.019       8.528       8.032       7.532       7.028       6.519       6.006       5.488    
        4.965       4.437       3.903       3.365       2.821       2.271       1.715       1.154      0.5859      1.1554E-02
   5    9.990       9.507       9.019       8.528       8.032       7.532       7.028       6.519       6.006       5.488    
        4.965       4.437       3.903       3.365       2.821       2.271       1.715       1.154      0.5859      1.1554E-02
   6    9.990       9.507       9.019       8.528       8.032       7.532       7.028       6.519       6.006       5.488    
        4.965       4.437       3.903       3.365       2.821       2.271       1.715       1.154      0.5859      1.1554E-02
   7    9.990       9.507       9.019       8.528       8.032       7.532       7.028       6.519       6.006       5.488    
        4.965       4.437       3.903       3.365       2.821       2.271       1.715       1.154      0.5859      1.1554E-02
   8    9.990       9.507       9.019       8.528       8.032       7.532       7.028       6.519       6.006       5.488    
        4.965       4.437       3.903       3.365       2.821       2.271       1.715       1.154      0.5859      1.1554E-02
   9    9.990       9.507       9.019       8.528       8.032       7.532       7.028       6.519       6.006       5.488    
        4.965       4.437       3.903       3.365       2.821       2.271       1.715       1.154      0.5859      1.1554E-02
  10    9.990       9.507       9.019       8.528       8.032       7.532       7.028       6.519       6.006       5.488    
        4.965       4.437       3.903       3.365       2.821       2.271       1.715       1.154      0.5859      1.1554E-02

 HEAD WILL BE SAVED ON UNIT   51 AT END OF TIME STEP  36, STRESS PERIOD    2

 DRAWDOWN WILL BE SAVED ON UNIT   52 AT END OF TIME STEP  36, STRESS PERIOD    2
1
  VOLUMETRIC BUDGET FOR ENTIRE MODEL AT END OF TIME STEP 36 IN STRESS PERIOD   2
  ------------------------------------------------------------------------------

     CUMULATIVE VOLUMES      L**3       RATES FOR THIS TIME STEP      L**3/T
     ------------------                 ------------------------

           IN:                                      IN:
           ---                                      ---
             STORAGE =       8.6888E-02               STORAGE =       2.4033E-03
       CONSTANT HEAD =           0.0000         CONSTANT HEAD =           0.0000
               WELLS =           0.0000                 WELLS =           0.0000
     HEAD DEP BOUNDS =       21374.9648       HEAD DEP BOUNDS =         577.7015

            TOTAL IN =       21375.0508              TOTAL IN =         577.7039

          OUT:                                     OUT:
          ----                                     ----
             STORAGE =       6.4697E-02               STORAGE =       1.8311E-03
       CONSTANT HEAD =           0.0000         CONSTANT HEAD =           0.0000
               WELLS =           0.0000                 WELLS =           0.0000
     HEAD DEP BOUNDS =       21375.6172       HEAD DEP BOUNDS =         577.7195

           TOTAL OUT =       21375.6816             TOTAL OUT =         577.7213

            IN - OUT =          -0.6309              IN - OUT =      -1.7456E-02

 PERCENT DISCREPANCY =           0.00     PERCENT DISCREPANCY =           0.00






          TIME SUMMARY AT END OF TIME STEP  36 IN STRESS PERIOD    2
                    SECONDS     MINUTES      HOURS       DAYS        YEARS
                    -----------------------------------------------------------
   TIME STEP LENGTH  86400.      1440.0      24.000      1.0000     2.73785E-03
 STRESS PERIOD TIME 3.11040E+06  51840.      864.00      36.000     9.85626E-02
         TOTAL TIME 3.19680E+06  53280.      888.00      37.000     0.10130    
1
 
 SOLVING FOR HEAD 

 OUTPUT CONTROL FOR STRESS PERIOD    2   TIME STEP  37
    SAVE HEAD FOR ALL LAYERS
    SAVE DRAWDOWN FOR ALL LAYERS
    SAVE BUDGET
    PRINT HEAD FOR ALL LAYERS
    PRINT BUDGET
 UBDSV1 SAVING "         STORAGE" ON UNIT  53 AT TIME STEP 37, STRESS PERIOD   2
 UBDSV2 SAVING "   CONSTANT HEAD" ON UNIT  53 AT TIME STEP 37, STRESS PERIOD   2
 UBDSV1 SAVING "FLOW RIGHT FACE " ON UNIT  53 AT TIME STEP 37, STRESS PERIOD   2
 UBDSV1 SAVING "FLOW FRONT FACE " ON UNIT  53 AT TIME STEP 37, STRESS PERIOD   2
1
              HEAD IN LAYER   1 AT END OF TIME STEP  37 IN STRESS PERIOD    2
  ---------------------------------------------------------------------------

            1           2           3           4           5           6           7           8           9          10
           11          12          13          14          15          16          17          18          19          20
 ........................................................................................................................
   1    9.990       9.507       9.019       8.528       8.032       7.532       7.028       6.519       6.006       5.488    
        4.965       4.437       3.903       3.365       2.821       2.271       1.715       1.154      0.5859      1.1554E-02
   2    9.990       9.507       9.019       8.528       8.032       7.532       7.028       6.519       6.006       5.488    
        4.965       4.437       3.903       3.365       2.821       2.271       1.715       1.154      0.5859      1.1554E-02
   3    9.990       9.507       9.019       8.528       8.032       7.532       7.028       6.519       6.006       5.488    
        4.965       4.437       3.903       3.365       2.821       2.271       1.715       1.154      0.5859      1.1554E-02
   4    9.990       9.507       9.019       8.528       8.032       7.532       7.028       6.519       6.006       5.488    
        4.965       4.437       3.903       3.365       2.821       2.271       1.715       1.154      0.5859      1.1554E-02
   5    9.990       9.507       9.019       8.528       8.032       7.532       7.028       6.519       6.006       5.488    
        4.965       4.437       3.903       3.365       2.821       2.271       1.715       1.154      0.5859      1.1554E-02
   6    9.990       9.507       9.019       8.528       8.032       7.532       7.028       6.519       6.006       5.488    
        4.965       4.437       3.903       3.365       2.821       2.271       1.715       1.154      0.5859      1.1554E-02
   7    9.990       9.507       9.019       8.528       8.032       7.532       7.028       6.519       6.006       5.488    
        4.965       4.437       3.903       3.365       2.821       2.271       1.715       1.154      0.5859      1.1554E-02
   8    9.990       9.507       9.019       8.528       8.032       7.532       7.028       6.519       6.006       5.488    
        4.965       4.437       3.903       3.365       2.821       2.271       1.715       1.154      0.5859      1.1554E-02
   9    9.990       9.507       9.019       8.528       8.032       7.532       7.028       6.519       6.006       5.488    
        4.965       4.437       3.903       3.365       2.821       2.271       1.715       1.154      0.5859      1.1554E-02
  10    9.990       9.507       9.019       8.528       8.032       7.532       7.028       6.519       6.006       5.488    
        4.965       4.437       3.903       3.365       2.821       2.271       1.715       1.154      0.5859      1.1554E-02

 HEAD WILL BE SAVED ON UNIT   51 AT END OF TIME STEP  37, STRESS PERIOD    2

 DRAWDOWN WILL BE SAVED ON UNIT   52 AT END OF TIME STEP  37, STRESS PERIOD    2
1
  VOLUMETRIC BUDGET FOR ENTIRE MODEL AT END OF TIME STEP 37 IN STRESS PERIOD   2
  ------------------------------------------------------------------------------

     CUMULATIVE VOLUMES      L**3       RATES FOR THIS TIME STEP      L**3/T
     ------------------                 ------------------------

           IN:                                      IN:
           ---                                      ---
             STORAGE =       8.9291E-02               STORAGE =       2.4033E-03
       CONSTANT HEAD =           0.0000         CONSTANT HEAD =           0.0000
               WELLS =           0.0000                 WELLS =           0.0000
     HEAD DEP BOUNDS =       21952.6660       HEAD DEP BOUNDS =         577.7015

            TOTAL IN =       21952.7559              TOTAL IN =         577.7039

          OUT:                                     OUT:
          ----                                     ----
             STORAGE =       6.6528E-02               STORAGE =       1.8311E-03
       CONSTANT HEAD =           0.0000         CONSTANT HEAD =           0.0000
               WELLS =           0.0000                 WELLS =           0.0000
     HEAD DEP BOUNDS =       21953.3359       HEAD DEP BOUNDS =         577.7195

           TOTAL OUT =       21953.4023             TOTAL OUT =         577.7213

            IN - OUT =          -0.6465              IN - OUT =      -1.7456E-02

 PERCENT DISCREPANCY =           0.00     PERCENT DISCREPANCY =           0.00






          TIME SUMMARY AT END OF TIME STEP  37 IN STRESS PERIOD    2
                    SECONDS     MINUTES      HOURS       DAYS        YEARS
                    -----------------------------------------------------------
   TIME STEP LENGTH  86400.      1440.0      24.000      1.0000     2.73785E-03
 STRESS PERIOD TIME 3.19680E+06  53280.      888.00      37.000     0.10130    
         TOTAL TIME 3.28320E+06  54720.      912.00      38.000     0.10404    
1
 
 SOLVING FOR HEAD 

 OUTPUT CONTROL FOR STRESS PERIOD    2   TIME STEP  38
    SAVE HEAD FOR ALL LAYERS
    SAVE DRAWDOWN FOR ALL LAYERS
    SAVE BUDGET
    PRINT HEAD FOR ALL LAYERS
    PRINT BUDGET
 UBDSV1 SAVING "         STORAGE" ON UNIT  53 AT TIME STEP 38, STRESS PERIOD   2
 UBDSV2 SAVING "   CONSTANT HEAD" ON UNIT  53 AT TIME STEP 38, STRESS PERIOD   2
 UBDSV1 SAVING "FLOW RIGHT FACE " ON UNIT  53 AT TIME STEP 38, STRESS PERIOD   2
 UBDSV1 SAVING "FLOW FRONT FACE " ON UNIT  53 AT TIME STEP 38, STRESS PERIOD   2
1
              HEAD IN LAYER   1 AT END OF TIME STEP  38 IN STRESS PERIOD    2
  ---------------------------------------------------------------------------

            1           2           3           4           5           6           7           8           9          10
           11          12          13          14          15          16          17          18          19          20
 ........................................................................................................................
   1    9.990       9.507       9.019       8.528       8.032       7.532       7.028       6.519       6.006       5.488    
        4.965       4.437       3.903       3.365       2.821       2.271       1.715       1.154      0.5859      1.1554E-02
   2    9.990       9.507       9.019       8.528       8.032       7.532       7.028       6.519       6.006       5.488    
        4.965       4.437       3.903       3.365       2.821       2.271       1.715       1.154      0.5859      1.1554E-02
   3    9.990       9.507       9.019       8.528       8.032       7.532       7.028       6.519       6.006       5.488    
        4.965       4.437       3.903       3.365       2.821       2.271       1.715       1.154      0.5859      1.1554E-02
   4    9.990       9.507       9.019       8.528       8.032       7.532       7.028       6.519       6.006       5.488    
        4.965       4.437       3.903       3.365       2.821       2.271       1.715       1.154      0.5859      1.1554E-02
   5    9.990       9.507       9.019       8.528       8.032       7.532       7.028       6.519       6.006       5.488    
        4.965       4.437       3.903       3.365       2.821       2.271       1.715       1.154      0.5859      1.1554E-02
   6    9.990       9.507       9.019       8.528       8.032       7.532       7.028       6.519       6.006       5.488    
        4.965       4.437       3.903       3.365       2.821       2.271       1.715       1.154      0.5859      1.1554E-02
   7    9.990       9.507       9.019       8.528       8.032       7.532       7.028       6.519       6.006       5.488    
        4.965       4.437       3.903       3.365       2.821       2.271       1.715       1.154      0.5859      1.1554E-02
   8    9.990       9.507       9.019       8.528       8.032       7.532       7.028       6.519       6.006       5.488    
        4.965       4.437       3.903       3.365       2.821       2.271       1.715       1.154      0.5859      1.1554E-02
   9    9.990       9.507       9.019       8.528       8.032       7.532       7.028       6.519       6.006       5.488    
        4.965       4.437       3.903       3.365       2.821       2.271       1.715       1.154      0.5859      1.1554E-02
  10    9.990       9.507       9.019       8.528       8.032       7.532       7.028       6.519       6.006       5.488    
        4.965       4.437       3.903       3.365       2.821       2.271       1.715       1.154      0.5859      1.1554E-02

 HEAD WILL BE SAVED ON UNIT   51 AT END OF TIME STEP  38, STRESS PERIOD    2

 DRAWDOWN WILL BE SAVED ON UNIT   52 AT END OF TIME STEP  38, STRESS PERIOD    2
1
  VOLUMETRIC BUDGET FOR ENTIRE MODEL AT END OF TIME STEP 38 IN STRESS PERIOD   2
  ------------------------------------------------------------------------------

     CUMULATIVE VOLUMES      L**3       RATES FOR THIS TIME STEP      L**3/T
     ------------------                 ------------------------

           IN:                                      IN:
           ---                                      ---
             STORAGE =       9.1694E-02               STORAGE =       2.4033E-03
       CONSTANT HEAD =           0.0000         CONSTANT HEAD =           0.0000
               WELLS =           0.0000                 WELLS =           0.0000
     HEAD DEP BOUNDS =       22530.3672       HEAD DEP BOUNDS =         577.7015

            TOTAL IN =       22530.4590              TOTAL IN =         577.7039

          OUT:                                     OUT:
          ----                                     ----
             STORAGE =       6.8359E-02               STORAGE =       1.8311E-03
       CONSTANT HEAD =           0.0000         CONSTANT HEAD =           0.0000
               WELLS =           0.0000                 WELLS =           0.0000
     HEAD DEP BOUNDS =       22531.0547       HEAD DEP BOUNDS =         577.7195

           TOTAL OUT =       22531.1230             TOTAL OUT =         577.7213

            IN - OUT =          -0.6641              IN - OUT =      -1.7456E-02

 PERCENT DISCREPANCY =           0.00     PERCENT DISCREPANCY =           0.00






          TIME SUMMARY AT END OF TIME STEP  38 IN STRESS PERIOD    2
                    SECONDS     MINUTES      HOURS       DAYS        YEARS
                    -----------------------------------------------------------
   TIME STEP LENGTH  86400.      1440.0      24.000      1.0000     2.73785E-03
 STRESS PERIOD TIME 3.28320E+06  54720.      912.00      38.000     0.10404    
         TOTAL TIME 3.36960E+06  56160.      936.00      39.000     0.10678    
1
 
 SOLVING FOR HEAD 

 OUTPUT CONTROL FOR STRESS PERIOD    2   TIME STEP  39
    SAVE HEAD FOR ALL LAYERS
    SAVE DRAWDOWN FOR ALL LAYERS
    SAVE BUDGET
    PRINT HEAD FOR ALL LAYERS
    PRINT BUDGET
 UBDSV1 SAVING "         STORAGE" ON UNIT  53 AT TIME STEP 39, STRESS PERIOD   2
 UBDSV2 SAVING "   CONSTANT HEAD" ON UNIT  53 AT TIME STEP 39, STRESS PERIOD   2
 UBDSV1 SAVING "FLOW RIGHT FACE " ON UNIT  53 AT TIME STEP 39, STRESS PERIOD   2
 UBDSV1 SAVING "FLOW FRONT FACE " ON UNIT  53 AT TIME STEP 39, STRESS PERIOD   2
1
              HEAD IN LAYER   1 AT END OF TIME STEP  39 IN STRESS PERIOD    2
  ---------------------------------------------------------------------------

            1           2           3           4           5           6           7           8           9          10
           11          12          13          14          15          16          17          18          19          20
 ........................................................................................................................
   1    9.990       9.507       9.019       8.528       8.032       7.532       7.028       6.519       6.006       5.488    
        4.965       4.437       3.903       3.365       2.821       2.271       1.715       1.154      0.5859      1.1554E-02
   2    9.990       9.507       9.019       8.528       8.032       7.532       7.028       6.519       6.006       5.488    
        4.965       4.437       3.903       3.365       2.821       2.271       1.715       1.154      0.5859      1.1554E-02
   3    9.990       9.507       9.019       8.528       8.032       7.532       7.028       6.519       6.006       5.488    
        4.965       4.437       3.903       3.365       2.821       2.271       1.715       1.154      0.5859      1.1554E-02
   4    9.990       9.507       9.019       8.528       8.032       7.532       7.028       6.519       6.006       5.488    
        4.965       4.437       3.903       3.365       2.821       2.271       1.715       1.154      0.5859      1.1554E-02
   5    9.990       9.507       9.019       8.528       8.032       7.532       7.028       6.519       6.006       5.488    
        4.965       4.437       3.903       3.365       2.821       2.271       1.715       1.154      0.5859      1.1554E-02
   6    9.990       9.507       9.019       8.528       8.032       7.532       7.028       6.519       6.006       5.488    
        4.965       4.437       3.903       3.365       2.821       2.271       1.715       1.154      0.5859      1.1554E-02
   7    9.990       9.507       9.019       8.528       8.032       7.532       7.028       6.519       6.006       5.488    
        4.965       4.437       3.903       3.365       2.821       2.271       1.715       1.154      0.5859      1.1554E-02
   8    9.990       9.507       9.019       8.528       8.032       7.532       7.028       6.519       6.006       5.488    
        4.965       4.437       3.903       3.365       2.821       2.271       1.715       1.154      0.5859      1.1554E-02
   9    9.990       9.507       9.019       8.528       8.032       7.532       7.028       6.519       6.006       5.488    
        4.965       4.437       3.903       3.365       2.821       2.271       1.715       1.154      0.5859      1.1554E-02
  10    9.990       9.507       9.019       8.528       8.032       7.532       7.028       6.519       6.006       5.488    
        4.965       4.437       3.903       3.365       2.821       2.271       1.715       1.154      0.5859      1.1554E-02

 HEAD WILL BE SAVED ON UNIT   51 AT END OF TIME STEP  39, STRESS PERIOD    2

 DRAWDOWN WILL BE SAVED ON UNIT   52 AT END OF TIME STEP  39, STRESS PERIOD    2
1
  VOLUMETRIC BUDGET FOR ENTIRE MODEL AT END OF TIME STEP 39 IN STRESS PERIOD   2
  ------------------------------------------------------------------------------

     CUMULATIVE VOLUMES      L**3       RATES FOR THIS TIME STEP      L**3/T
     ------------------                 ------------------------

           IN:                                      IN:
           ---                                      ---
             STORAGE =       9.4098E-02               STORAGE =       2.4033E-03
       CONSTANT HEAD =           0.0000         CONSTANT HEAD =           0.0000
               WELLS =           0.0000                 WELLS =           0.0000
     HEAD DEP BOUNDS =       23108.0684       HEAD DEP BOUNDS =         577.7015

            TOTAL IN =       23108.1621              TOTAL IN =         577.7039

          OUT:                                     OUT:
          ----                                     ----
             STORAGE =       7.0190E-02               STORAGE =       1.8311E-03
       CONSTANT HEAD =           0.0000         CONSTANT HEAD =           0.0000
               WELLS =           0.0000                 WELLS =           0.0000
     HEAD DEP BOUNDS =       23108.7734       HEAD DEP BOUNDS =         577.7195

           TOTAL OUT =       23108.8438             TOTAL OUT =         577.7213

            IN - OUT =          -0.6816              IN - OUT =      -1.7456E-02

 PERCENT DISCREPANCY =           0.00     PERCENT DISCREPANCY =           0.00






          TIME SUMMARY AT END OF TIME STEP  39 IN STRESS PERIOD    2
                    SECONDS     MINUTES      HOURS       DAYS        YEARS
                    -----------------------------------------------------------
   TIME STEP LENGTH  86400.      1440.0      24.000      1.0000     2.73785E-03
 STRESS PERIOD TIME 3.36960E+06  56160.      936.00      39.000     0.10678    
         TOTAL TIME 3.45600E+06  57600.      960.00      40.000     0.10951    
1
 
 SOLVING FOR HEAD 

 OUTPUT CONTROL FOR STRESS PERIOD    2   TIME STEP  40
    SAVE HEAD FOR ALL LAYERS
    SAVE DRAWDOWN FOR ALL LAYERS
    SAVE BUDGET
    PRINT HEAD FOR ALL LAYERS
    PRINT BUDGET
 UBDSV1 SAVING "         STORAGE" ON UNIT  53 AT TIME STEP 40, STRESS PERIOD   2
 UBDSV2 SAVING "   CONSTANT HEAD" ON UNIT  53 AT TIME STEP 40, STRESS PERIOD   2
 UBDSV1 SAVING "FLOW RIGHT FACE " ON UNIT  53 AT TIME STEP 40, STRESS PERIOD   2
 UBDSV1 SAVING "FLOW FRONT FACE " ON UNIT  53 AT TIME STEP 40, STRESS PERIOD   2
1
              HEAD IN LAYER   1 AT END OF TIME STEP  40 IN STRESS PERIOD    2
  ---------------------------------------------------------------------------

            1           2           3           4           5           6           7           8           9          10
           11          12          13          14          15          16          17          18          19          20
 ........................................................................................................................
   1    9.990       9.507       9.019       8.528       8.032       7.532       7.028       6.519       6.006       5.488    
        4.965       4.437       3.903       3.365       2.821       2.271       1.715       1.154      0.5859      1.1554E-02
   2    9.990       9.507       9.019       8.528       8.032       7.532       7.028       6.519       6.006       5.488    
        4.965       4.437       3.903       3.365       2.821       2.271       1.715       1.154      0.5859      1.1554E-02
   3    9.990       9.507       9.019       8.528       8.032       7.532       7.028       6.519       6.006       5.488    
        4.965       4.437       3.903       3.365       2.821       2.271       1.715       1.154      0.5859      1.1554E-02
   4    9.990       9.507       9.019       8.528       8.032       7.532       7.028       6.519       6.006       5.488    
        4.965       4.437       3.903       3.365       2.821       2.271       1.715       1.154      0.5859      1.1554E-02
   5    9.990       9.507       9.019       8.528       8.032       7.532       7.028       6.519       6.006       5.488    
        4.965       4.437       3.903       3.365       2.821       2.271       1.715       1.154      0.5859      1.1554E-02
   6    9.990       9.507       9.019       8.528       8.032       7.532       7.028       6.519       6.006       5.488    
        4.965       4.437       3.903       3.365       2.821       2.271       1.715       1.154      0.5859      1.1554E-02
   7    9.990       9.507       9.019       8.528       8.032       7.532       7.028       6.519       6.006       5.488    
        4.965       4.437       3.903       3.365       2.821       2.271       1.715       1.154      0.5859      1.1554E-02
   8    9.990       9.507       9.019       8.528       8.032       7.532       7.028       6.519       6.006       5.488    
        4.965       4.437       3.903       3.365       2.821       2.271       1.715       1.154      0.5859      1.1554E-02
   9    9.990       9.507       9.019       8.528       8.032       7.532       7.028       6.519       6.006       5.488    
        4.965       4.437       3.903       3.365       2.821       2.271       1.715       1.154      0.5859      1.1554E-02
  10    9.990       9.507       9.019       8.528       8.032       7.532       7.028       6.519       6.006       5.488    
        4.965       4.437       3.903       3.365       2.821       2.271       1.715       1.154      0.5859      1.1554E-02

 HEAD WILL BE SAVED ON UNIT   51 AT END OF TIME STEP  40, STRESS PERIOD    2

 DRAWDOWN WILL BE SAVED ON UNIT   52 AT END OF TIME STEP  40, STRESS PERIOD    2
1
  VOLUMETRIC BUDGET FOR ENTIRE MODEL AT END OF TIME STEP 40 IN STRESS PERIOD   2
  ------------------------------------------------------------------------------

     CUMULATIVE VOLUMES      L**3       RATES FOR THIS TIME STEP      L**3/T
     ------------------                 ------------------------

           IN:                                      IN:
           ---                                      ---
             STORAGE =       9.6501E-02               STORAGE =       2.4033E-03
       CONSTANT HEAD =           0.0000         CONSTANT HEAD =           0.0000
               WELLS =           0.0000                 WELLS =           0.0000
     HEAD DEP BOUNDS =       23685.7695       HEAD DEP BOUNDS =         577.7015

            TOTAL IN =       23685.8652              TOTAL IN =         577.7039

          OUT:                                     OUT:
          ----                                     ----
             STORAGE =       7.2021E-02               STORAGE =       1.8311E-03
       CONSTANT HEAD =           0.0000         CONSTANT HEAD =           0.0000
               WELLS =           0.0000                 WELLS =           0.0000
     HEAD DEP BOUNDS =       23686.4922       HEAD DEP BOUNDS =         577.7195

           TOTAL OUT =       23686.5645             TOTAL OUT =         577.7213

            IN - OUT =          -0.6992              IN - OUT =      -1.7456E-02

 PERCENT DISCREPANCY =           0.00     PERCENT DISCREPANCY =           0.00






          TIME SUMMARY AT END OF TIME STEP  40 IN STRESS PERIOD    2
                    SECONDS     MINUTES      HOURS       DAYS        YEARS
                    -----------------------------------------------------------
   TIME STEP LENGTH  86400.      1440.0      24.000      1.0000     2.73785E-03
 STRESS PERIOD TIME 3.45600E+06  57600.      960.00      40.000     0.10951    
         TOTAL TIME 3.54240E+06  59040.      984.00      41.000     0.11225    
1
 
 SOLVING FOR HEAD 

 OUTPUT CONTROL FOR STRESS PERIOD    2   TIME STEP  41
    SAVE HEAD FOR ALL LAYERS
    SAVE DRAWDOWN FOR ALL LAYERS
    SAVE BUDGET
    PRINT HEAD FOR ALL LAYERS
    PRINT BUDGET
 UBDSV1 SAVING "         STORAGE" ON UNIT  53 AT TIME STEP 41, STRESS PERIOD   2
 UBDSV2 SAVING "   CONSTANT HEAD" ON UNIT  53 AT TIME STEP 41, STRESS PERIOD   2
 UBDSV1 SAVING "FLOW RIGHT FACE " ON UNIT  53 AT TIME STEP 41, STRESS PERIOD   2
 UBDSV1 SAVING "FLOW FRONT FACE " ON UNIT  53 AT TIME STEP 41, STRESS PERIOD   2
1
              HEAD IN LAYER   1 AT END OF TIME STEP  41 IN STRESS PERIOD    2
  ---------------------------------------------------------------------------

            1           2           3           4           5           6           7           8           9          10
           11          12          13          14          15          16          17          18          19          20
 ........................................................................................................................
   1    9.990       9.507       9.019       8.528       8.032       7.532       7.028       6.519       6.006       5.488    
        4.965       4.437       3.903       3.365       2.821       2.271       1.715       1.154      0.5859      1.1554E-02
   2    9.990       9.507       9.019       8.528       8.032       7.532       7.028       6.519       6.006       5.488    
        4.965       4.437       3.903       3.365       2.821       2.271       1.715       1.154      0.5859      1.1554E-02
   3    9.990       9.507       9.019       8.528       8.032       7.532       7.028       6.519       6.006       5.488    
        4.965       4.437       3.903       3.365       2.821       2.271       1.715       1.154      0.5859      1.1554E-02
   4    9.990       9.507       9.019       8.528       8.032       7.532       7.028       6.519       6.006       5.488    
        4.965       4.437       3.903       3.365       2.821       2.271       1.715       1.154      0.5859      1.1554E-02
   5    9.990       9.507       9.019       8.528       8.032       7.532       7.028       6.519       6.006       5.488    
        4.965       4.437       3.903       3.365       2.821       2.271       1.715       1.154      0.5859      1.1554E-02
   6    9.990       9.507       9.019       8.528       8.032       7.532       7.028       6.519       6.006       5.488    
        4.965       4.437       3.903       3.365       2.821       2.271       1.715       1.154      0.5859      1.1554E-02
   7    9.990       9.507       9.019       8.528       8.032       7.532       7.028       6.519       6.006       5.488    
        4.965       4.437       3.903       3.365       2.821       2.271       1.715       1.154      0.5859      1.1554E-02
   8    9.990       9.507       9.019       8.528       8.032       7.532       7.028       6.519       6.006       5.488    
        4.965       4.437       3.903       3.365       2.821       2.271       1.715       1.154      0.5859      1.1554E-02
   9    9.990       9.507       9.019       8.528       8.032       7.532       7.028       6.519       6.006       5.488    
        4.965       4.437       3.903       3.365       2.821       2.271       1.715       1.154      0.5859      1.1554E-02
  10    9.990       9.507       9.019       8.528       8.032       7.532       7.028       6.519       6.006       5.488    
        4.965       4.437       3.903       3.365       2.821       2.271       1.715       1.154      0.5859      1.1554E-02

 HEAD WILL BE SAVED ON UNIT   51 AT END OF TIME STEP  41, STRESS PERIOD    2

 DRAWDOWN WILL BE SAVED ON UNIT   52 AT END OF TIME STEP  41, STRESS PERIOD    2
1
  VOLUMETRIC BUDGET FOR ENTIRE MODEL AT END OF TIME STEP 41 IN STRESS PERIOD   2
  ------------------------------------------------------------------------------

     CUMULATIVE VOLUMES      L**3       RATES FOR THIS TIME STEP      L**3/T
     ------------------                 ------------------------

           IN:                                      IN:
           ---                                      ---
             STORAGE =       9.8904E-02               STORAGE =       2.4033E-03
       CONSTANT HEAD =           0.0000         CONSTANT HEAD =           0.0000
               WELLS =           0.0000                 WELLS =           0.0000
     HEAD DEP BOUNDS =       24263.4707       HEAD DEP BOUNDS =         577.7015

            TOTAL IN =       24263.5703              TOTAL IN =         577.7039

          OUT:                                     OUT:
          ----                                     ----
             STORAGE =       7.3853E-02               STORAGE =       1.8311E-03
       CONSTANT HEAD =           0.0000         CONSTANT HEAD =           0.0000
               WELLS =           0.0000                 WELLS =           0.0000
     HEAD DEP BOUNDS =       24264.2109       HEAD DEP BOUNDS =         577.7195

           TOTAL OUT =       24264.2852             TOTAL OUT =         577.7213

            IN - OUT =          -0.7148              IN - OUT =      -1.7456E-02

 PERCENT DISCREPANCY =           0.00     PERCENT DISCREPANCY =           0.00






          TIME SUMMARY AT END OF TIME STEP  41 IN STRESS PERIOD    2
                    SECONDS     MINUTES      HOURS       DAYS        YEARS
                    -----------------------------------------------------------
   TIME STEP LENGTH  86400.      1440.0      24.000      1.0000     2.73785E-03
 STRESS PERIOD TIME 3.54240E+06  59040.      984.00      41.000     0.11225    
         TOTAL TIME 3.62880E+06  60480.      1008.0      42.000     0.11499    
1
 
 SOLVING FOR HEAD 

 OUTPUT CONTROL FOR STRESS PERIOD    2   TIME STEP  42
    SAVE HEAD FOR ALL LAYERS
    SAVE DRAWDOWN FOR ALL LAYERS
    SAVE BUDGET
    PRINT HEAD FOR ALL LAYERS
    PRINT BUDGET
 UBDSV1 SAVING "         STORAGE" ON UNIT  53 AT TIME STEP 42, STRESS PERIOD   2
 UBDSV2 SAVING "   CONSTANT HEAD" ON UNIT  53 AT TIME STEP 42, STRESS PERIOD   2
 UBDSV1 SAVING "FLOW RIGHT FACE " ON UNIT  53 AT TIME STEP 42, STRESS PERIOD   2
 UBDSV1 SAVING "FLOW FRONT FACE " ON UNIT  53 AT TIME STEP 42, STRESS PERIOD   2
1
              HEAD IN LAYER   1 AT END OF TIME STEP  42 IN STRESS PERIOD    2
  ---------------------------------------------------------------------------

            1           2           3           4           5           6           7           8           9          10
           11          12          13          14          15          16          17          18          19          20
 ........................................................................................................................
   1    9.990       9.507       9.019       8.528       8.032       7.532       7.028       6.519       6.006       5.488    
        4.965       4.437       3.903       3.365       2.821       2.271       1.715       1.154      0.5859      1.1554E-02
   2    9.990       9.507       9.019       8.528       8.032       7.532       7.028       6.519       6.006       5.488    
        4.965       4.437       3.903       3.365       2.821       2.271       1.715       1.154      0.5859      1.1554E-02
   3    9.990       9.507       9.019       8.528       8.032       7.532       7.028       6.519       6.006       5.488    
        4.965       4.437       3.903       3.365       2.821       2.271       1.715       1.154      0.5859      1.1554E-02
   4    9.990       9.507       9.019       8.528       8.032       7.532       7.028       6.519       6.006       5.488    
        4.965       4.437       3.903       3.365       2.821       2.271       1.715       1.154      0.5859      1.1554E-02
   5    9.990       9.507       9.019       8.528       8.032       7.532       7.028       6.519       6.006       5.488    
        4.965       4.437       3.903       3.365       2.821       2.271       1.715       1.154      0.5859      1.1554E-02
   6    9.990       9.507       9.019       8.528       8.032       7.532       7.028       6.519       6.006       5.488    
        4.965       4.437       3.903       3.365       2.821       2.271       1.715       1.154      0.5859      1.1554E-02
   7    9.990       9.507       9.019       8.528       8.032       7.532       7.028       6.519       6.006       5.488    
        4.965       4.437       3.903       3.365       2.821       2.271       1.715       1.154      0.5859      1.1554E-02
   8    9.990       9.507       9.019       8.528       8.032       7.532       7.028       6.519       6.006       5.488    
        4.965       4.437       3.903       3.365       2.821       2.271       1.715       1.154      0.5859      1.1554E-02
   9    9.990       9.507       9.019       8.528       8.032       7.532       7.028       6.519       6.006       5.488    
        4.965       4.437       3.903       3.365       2.821       2.271       1.715       1.154      0.5859      1.1554E-02
  10    9.990       9.507       9.019       8.528       8.032       7.532       7.028       6.519       6.006       5.488    
        4.965       4.437       3.903       3.365       2.821       2.271       1.715       1.154      0.5859      1.1554E-02

 HEAD WILL BE SAVED ON UNIT   51 AT END OF TIME STEP  42, STRESS PERIOD    2

 DRAWDOWN WILL BE SAVED ON UNIT   52 AT END OF TIME STEP  42, STRESS PERIOD    2
1
  VOLUMETRIC BUDGET FOR ENTIRE MODEL AT END OF TIME STEP 42 IN STRESS PERIOD   2
  ------------------------------------------------------------------------------

     CUMULATIVE VOLUMES      L**3       RATES FOR THIS TIME STEP      L**3/T
     ------------------                 ------------------------

           IN:                                      IN:
           ---                                      ---
             STORAGE =           0.1013               STORAGE =       2.4033E-03
       CONSTANT HEAD =           0.0000         CONSTANT HEAD =           0.0000
               WELLS =           0.0000                 WELLS =           0.0000
     HEAD DEP BOUNDS =       24841.1719       HEAD DEP BOUNDS =         577.7015

            TOTAL IN =       24841.2734              TOTAL IN =         577.7039

          OUT:                                     OUT:
          ----                                     ----
             STORAGE =       7.5684E-02               STORAGE =       1.8311E-03
       CONSTANT HEAD =           0.0000         CONSTANT HEAD =           0.0000
               WELLS =           0.0000                 WELLS =           0.0000
     HEAD DEP BOUNDS =       24841.9297       HEAD DEP BOUNDS =         577.7195

           TOTAL OUT =       24842.0059             TOTAL OUT =         577.7213

            IN - OUT =          -0.7324              IN - OUT =      -1.7456E-02

 PERCENT DISCREPANCY =           0.00     PERCENT DISCREPANCY =           0.00






          TIME SUMMARY AT END OF TIME STEP  42 IN STRESS PERIOD    2
                    SECONDS     MINUTES      HOURS       DAYS        YEARS
                    -----------------------------------------------------------
   TIME STEP LENGTH  86400.      1440.0      24.000      1.0000     2.73785E-03
 STRESS PERIOD TIME 3.62880E+06  60480.      1008.0      42.000     0.11499    
         TOTAL TIME 3.71520E+06  61920.      1032.0      43.000     0.11773    
1
 
 SOLVING FOR HEAD 

 OUTPUT CONTROL FOR STRESS PERIOD    2   TIME STEP  43
    SAVE HEAD FOR ALL LAYERS
    SAVE DRAWDOWN FOR ALL LAYERS
    SAVE BUDGET
    PRINT HEAD FOR ALL LAYERS
    PRINT BUDGET
 UBDSV1 SAVING "         STORAGE" ON UNIT  53 AT TIME STEP 43, STRESS PERIOD   2
 UBDSV2 SAVING "   CONSTANT HEAD" ON UNIT  53 AT TIME STEP 43, STRESS PERIOD   2
 UBDSV1 SAVING "FLOW RIGHT FACE " ON UNIT  53 AT TIME STEP 43, STRESS PERIOD   2
 UBDSV1 SAVING "FLOW FRONT FACE " ON UNIT  53 AT TIME STEP 43, STRESS PERIOD   2
1
              HEAD IN LAYER   1 AT END OF TIME STEP  43 IN STRESS PERIOD    2
  ---------------------------------------------------------------------------

            1           2           3           4           5           6           7           8           9          10
           11          12          13          14          15          16          17          18          19          20
 ........................................................................................................................
   1    9.990       9.507       9.019       8.528       8.032       7.532       7.028       6.519       6.006       5.488    
        4.965       4.437       3.903       3.365       2.821       2.271       1.715       1.154      0.5859      1.1554E-02
   2    9.990       9.507       9.019       8.528       8.032       7.532       7.028       6.519       6.006       5.488    
        4.965       4.437       3.903       3.365       2.821       2.271       1.715       1.154      0.5859      1.1554E-02
   3    9.990       9.507       9.019       8.528       8.032       7.532       7.028       6.519       6.006       5.488    
        4.965       4.437       3.903       3.365       2.821       2.271       1.715       1.154      0.5859      1.1554E-02
   4    9.990       9.507       9.019       8.528       8.032       7.532       7.028       6.519       6.006       5.488    
        4.965       4.437       3.903       3.365       2.821       2.271       1.715       1.154      0.5859      1.1554E-02
   5    9.990       9.507       9.019       8.528       8.032       7.532       7.028       6.519       6.006       5.488    
        4.965       4.437       3.903       3.365       2.821       2.271       1.715       1.154      0.5859      1.1554E-02
   6    9.990       9.507       9.019       8.528       8.032       7.532       7.028       6.519       6.006       5.488    
        4.965       4.437       3.903       3.365       2.821       2.271       1.715       1.154      0.5859      1.1554E-02
   7    9.990       9.507       9.019       8.528       8.032       7.532       7.028       6.519       6.006       5.488    
        4.965       4.437       3.903       3.365       2.821       2.271       1.715       1.154      0.5859      1.1554E-02
   8    9.990       9.507       9.019       8.528       8.032       7.532       7.028       6.519       6.006       5.488    
        4.965       4.437       3.903       3.365       2.821       2.271       1.715       1.154      0.5859      1.1554E-02
   9    9.990       9.507       9.019       8.528       8.032       7.532       7.028       6.519       6.006       5.488    
        4.965       4.437       3.903       3.365       2.821       2.271       1.715       1.154      0.5859      1.1554E-02
  10    9.990       9.507       9.019       8.528       8.032       7.532       7.028       6.519       6.006       5.488    
        4.965       4.437       3.903       3.365       2.821       2.271       1.715       1.154      0.5859      1.1554E-02

 HEAD WILL BE SAVED ON UNIT   51 AT END OF TIME STEP  43, STRESS PERIOD    2

 DRAWDOWN WILL BE SAVED ON UNIT   52 AT END OF TIME STEP  43, STRESS PERIOD    2
1
  VOLUMETRIC BUDGET FOR ENTIRE MODEL AT END OF TIME STEP 43 IN STRESS PERIOD   2
  ------------------------------------------------------------------------------

     CUMULATIVE VOLUMES      L**3       RATES FOR THIS TIME STEP      L**3/T
     ------------------                 ------------------------

           IN:                                      IN:
           ---                                      ---
             STORAGE =           0.1037               STORAGE =       2.4033E-03
       CONSTANT HEAD =           0.0000         CONSTANT HEAD =           0.0000
               WELLS =           0.0000                 WELLS =           0.0000
     HEAD DEP BOUNDS =       25418.8730       HEAD DEP BOUNDS =         577.7015

            TOTAL IN =       25418.9766              TOTAL IN =         577.7039

          OUT:                                     OUT:
          ----                                     ----
             STORAGE =       7.7515E-02               STORAGE =       1.8311E-03
       CONSTANT HEAD =           0.0000         CONSTANT HEAD =           0.0000
               WELLS =           0.0000                 WELLS =           0.0000
     HEAD DEP BOUNDS =       25419.6484       HEAD DEP BOUNDS =         577.7195

           TOTAL OUT =       25419.7266             TOTAL OUT =         577.7213

            IN - OUT =          -0.7500              IN - OUT =      -1.7456E-02

 PERCENT DISCREPANCY =           0.00     PERCENT DISCREPANCY =           0.00






          TIME SUMMARY AT END OF TIME STEP  43 IN STRESS PERIOD    2
                    SECONDS     MINUTES      HOURS       DAYS        YEARS
                    -----------------------------------------------------------
   TIME STEP LENGTH  86400.      1440.0      24.000      1.0000     2.73785E-03
 STRESS PERIOD TIME 3.71520E+06  61920.      1032.0      43.000     0.11773    
         TOTAL TIME 3.80160E+06  63360.      1056.0      44.000     0.12047    
1
 
 SOLVING FOR HEAD 

 OUTPUT CONTROL FOR STRESS PERIOD    2   TIME STEP  44
    SAVE HEAD FOR ALL LAYERS
    SAVE DRAWDOWN FOR ALL LAYERS
    SAVE BUDGET
    PRINT HEAD FOR ALL LAYERS
    PRINT BUDGET
 UBDSV1 SAVING "         STORAGE" ON UNIT  53 AT TIME STEP 44, STRESS PERIOD   2
 UBDSV2 SAVING "   CONSTANT HEAD" ON UNIT  53 AT TIME STEP 44, STRESS PERIOD   2
 UBDSV1 SAVING "FLOW RIGHT FACE " ON UNIT  53 AT TIME STEP 44, STRESS PERIOD   2
 UBDSV1 SAVING "FLOW FRONT FACE " ON UNIT  53 AT TIME STEP 44, STRESS PERIOD   2
1
              HEAD IN LAYER   1 AT END OF TIME STEP  44 IN STRESS PERIOD    2
  ---------------------------------------------------------------------------

            1           2           3           4           5           6           7           8           9          10
           11          12          13          14          15          16          17          18          19          20
 ........................................................................................................................
   1    9.990       9.507       9.019       8.528       8.032       7.532       7.028       6.519       6.006       5.488    
        4.965       4.437       3.903       3.365       2.821       2.271       1.715       1.154      0.5859      1.1554E-02
   2    9.990       9.507       9.019       8.528       8.032       7.532       7.028       6.519       6.006       5.488    
        4.965       4.437       3.903       3.365       2.821       2.271       1.715       1.154      0.5859      1.1554E-02
   3    9.990       9.507       9.019       8.528       8.032       7.532       7.028       6.519       6.006       5.488    
        4.965       4.437       3.903       3.365       2.821       2.271       1.715       1.154      0.5859      1.1554E-02
   4    9.990       9.507       9.019       8.528       8.032       7.532       7.028       6.519       6.006       5.488    
        4.965       4.437       3.903       3.365       2.821       2.271       1.715       1.154      0.5859      1.1554E-02
   5    9.990       9.507       9.019       8.528       8.032       7.532       7.028       6.519       6.006       5.488    
        4.965       4.437       3.903       3.365       2.821       2.271       1.715       1.154      0.5859      1.1554E-02
   6    9.990       9.507       9.019       8.528       8.032       7.532       7.028       6.519       6.006       5.488    
        4.965       4.437       3.903       3.365       2.821       2.271       1.715       1.154      0.5859      1.1554E-02
   7    9.990       9.507       9.019       8.528       8.032       7.532       7.028       6.519       6.006       5.488    
        4.965       4.437       3.903       3.365       2.821       2.271       1.715       1.154      0.5859      1.1554E-02
   8    9.990       9.507       9.019       8.528       8.032       7.532       7.028       6.519       6.006       5.488    
        4.965       4.437       3.903       3.365       2.821       2.271       1.715       1.154      0.5859      1.1554E-02
   9    9.990       9.507       9.019       8.528       8.032       7.532       7.028       6.519       6.006       5.488    
        4.965       4.437       3.903       3.365       2.821       2.271       1.715       1.154      0.5859      1.1554E-02
  10    9.990       9.507       9.019       8.528       8.032       7.532       7.028       6.519       6.006       5.488    
        4.965       4.437       3.903       3.365       2.821       2.271       1.715       1.154      0.5859      1.1554E-02

 HEAD WILL BE SAVED ON UNIT   51 AT END OF TIME STEP  44, STRESS PERIOD    2

 DRAWDOWN WILL BE SAVED ON UNIT   52 AT END OF TIME STEP  44, STRESS PERIOD    2
1
  VOLUMETRIC BUDGET FOR ENTIRE MODEL AT END OF TIME STEP 44 IN STRESS PERIOD   2
  ------------------------------------------------------------------------------

     CUMULATIVE VOLUMES      L**3       RATES FOR THIS TIME STEP      L**3/T
     ------------------                 ------------------------

           IN:                                      IN:
           ---                                      ---
             STORAGE =           0.1061               STORAGE =       2.4033E-03
       CONSTANT HEAD =           0.0000         CONSTANT HEAD =           0.0000
               WELLS =           0.0000                 WELLS =           0.0000
     HEAD DEP BOUNDS =       25996.5742       HEAD DEP BOUNDS =         577.7015

            TOTAL IN =       25996.6797              TOTAL IN =         577.7039

          OUT:                                     OUT:
          ----                                     ----
             STORAGE =       7.9346E-02               STORAGE =       1.8311E-03
       CONSTANT HEAD =           0.0000         CONSTANT HEAD =           0.0000
               WELLS =           0.0000                 WELLS =           0.0000
     HEAD DEP BOUNDS =       25997.3672       HEAD DEP BOUNDS =         577.7195

           TOTAL OUT =       25997.4473             TOTAL OUT =         577.7213

            IN - OUT =          -0.7676              IN - OUT =      -1.7456E-02

 PERCENT DISCREPANCY =           0.00     PERCENT DISCREPANCY =           0.00






          TIME SUMMARY AT END OF TIME STEP  44 IN STRESS PERIOD    2
                    SECONDS     MINUTES      HOURS       DAYS        YEARS
                    -----------------------------------------------------------
   TIME STEP LENGTH  86400.      1440.0      24.000      1.0000     2.73785E-03
 STRESS PERIOD TIME 3.80160E+06  63360.      1056.0      44.000     0.12047    
         TOTAL TIME 3.88800E+06  64800.      1080.0      45.000     0.12320    
1
 
 SOLVING FOR HEAD 

 OUTPUT CONTROL FOR STRESS PERIOD    2   TIME STEP  45
    SAVE HEAD FOR ALL LAYERS
    SAVE DRAWDOWN FOR ALL LAYERS
    SAVE BUDGET
    PRINT HEAD FOR ALL LAYERS
    PRINT BUDGET
 UBDSV1 SAVING "         STORAGE" ON UNIT  53 AT TIME STEP 45, STRESS PERIOD   2
 UBDSV2 SAVING "   CONSTANT HEAD" ON UNIT  53 AT TIME STEP 45, STRESS PERIOD   2
 UBDSV1 SAVING "FLOW RIGHT FACE " ON UNIT  53 AT TIME STEP 45, STRESS PERIOD   2
 UBDSV1 SAVING "FLOW FRONT FACE " ON UNIT  53 AT TIME STEP 45, STRESS PERIOD   2
1
              HEAD IN LAYER   1 AT END OF TIME STEP  45 IN STRESS PERIOD    2
  ---------------------------------------------------------------------------

            1           2           3           4           5           6           7           8           9          10
           11          12          13          14          15          16          17          18          19          20
 ........................................................................................................................
   1    9.990       9.507       9.019       8.528       8.032       7.532       7.028       6.519       6.006       5.488    
        4.965       4.437       3.903       3.365       2.821       2.271       1.715       1.154      0.5859      1.1554E-02
   2    9.990       9.507       9.019       8.528       8.032       7.532       7.028       6.519       6.006       5.488    
        4.965       4.437       3.903       3.365       2.821       2.271       1.715       1.154      0.5859      1.1554E-02
   3    9.990       9.507       9.019       8.528       8.032       7.532       7.028       6.519       6.006       5.488    
        4.965       4.437       3.903       3.365       2.821       2.271       1.715       1.154      0.5859      1.1554E-02
   4    9.990       9.507       9.019       8.528       8.032       7.532       7.028       6.519       6.006       5.488    
        4.965       4.437       3.903       3.365       2.821       2.271       1.715       1.154      0.5859      1.1554E-02
   5    9.990       9.507       9.019       8.528       8.032       7.532       7.028       6.519       6.006       5.488    
        4.965       4.437       3.903       3.365       2.821       2.271       1.715       1.154      0.5859      1.1554E-02
   6    9.990       9.507       9.019       8.528       8.032       7.532       7.028       6.519       6.006       5.488    
        4.965       4.437       3.903       3.365       2.821       2.271       1.715       1.154      0.5859      1.1554E-02
   7    9.990       9.507       9.019       8.528       8.032       7.532       7.028       6.519       6.006       5.488    
        4.965       4.437       3.903       3.365       2.821       2.271       1.715       1.154      0.5859      1.1554E-02
   8    9.990       9.507       9.019       8.528       8.032       7.532       7.028       6.519       6.006       5.488    
        4.965       4.437       3.903       3.365       2.821       2.271       1.715       1.154      0.5859      1.1554E-02
   9    9.990       9.507       9.019       8.528       8.032       7.532       7.028       6.519       6.006       5.488    
        4.965       4.437       3.903       3.365       2.821       2.271       1.715       1.154      0.5859      1.1554E-02
  10    9.990       9.507       9.019       8.528       8.032       7.532       7.028       6.519       6.006       5.488    
        4.965       4.437       3.903       3.365       2.821       2.271       1.715       1.154      0.5859      1.1554E-02

 HEAD WILL BE SAVED ON UNIT   51 AT END OF TIME STEP  45, STRESS PERIOD    2

 DRAWDOWN WILL BE SAVED ON UNIT   52 AT END OF TIME STEP  45, STRESS PERIOD    2
1
  VOLUMETRIC BUDGET FOR ENTIRE MODEL AT END OF TIME STEP 45 IN STRESS PERIOD   2
  ------------------------------------------------------------------------------

     CUMULATIVE VOLUMES      L**3       RATES FOR THIS TIME STEP      L**3/T
     ------------------                 ------------------------

           IN:                                      IN:
           ---                                      ---
             STORAGE =           0.1085               STORAGE =       2.4033E-03
       CONSTANT HEAD =           0.0000         CONSTANT HEAD =           0.0000
               WELLS =           0.0000                 WELLS =           0.0000
     HEAD DEP BOUNDS =       26574.2754       HEAD DEP BOUNDS =         577.7015

            TOTAL IN =       26574.3848              TOTAL IN =         577.7039

          OUT:                                     OUT:
          ----                                     ----
             STORAGE =       8.1177E-02               STORAGE =       1.8311E-03
       CONSTANT HEAD =           0.0000         CONSTANT HEAD =           0.0000
               WELLS =           0.0000                 WELLS =           0.0000
     HEAD DEP BOUNDS =       26575.0859       HEAD DEP BOUNDS =         577.7195

           TOTAL OUT =       26575.1680             TOTAL OUT =         577.7213

            IN - OUT =          -0.7832              IN - OUT =      -1.7456E-02

 PERCENT DISCREPANCY =           0.00     PERCENT DISCREPANCY =           0.00






          TIME SUMMARY AT END OF TIME STEP  45 IN STRESS PERIOD    2
                    SECONDS     MINUTES      HOURS       DAYS        YEARS
                    -----------------------------------------------------------
   TIME STEP LENGTH  86400.      1440.0      24.000      1.0000     2.73785E-03
 STRESS PERIOD TIME 3.88800E+06  64800.      1080.0      45.000     0.12320    
         TOTAL TIME 3.97440E+06  66240.      1104.0      46.000     0.12594    
1
 
 SOLVING FOR HEAD 

 OUTPUT CONTROL FOR STRESS PERIOD    2   TIME STEP  46
    SAVE HEAD FOR ALL LAYERS
    SAVE DRAWDOWN FOR ALL LAYERS
    SAVE BUDGET
    PRINT HEAD FOR ALL LAYERS
    PRINT BUDGET
 UBDSV1 SAVING "         STORAGE" ON UNIT  53 AT TIME STEP 46, STRESS PERIOD   2
 UBDSV2 SAVING "   CONSTANT HEAD" ON UNIT  53 AT TIME STEP 46, STRESS PERIOD   2
 UBDSV1 SAVING "FLOW RIGHT FACE " ON UNIT  53 AT TIME STEP 46, STRESS PERIOD   2
 UBDSV1 SAVING "FLOW FRONT FACE " ON UNIT  53 AT TIME STEP 46, STRESS PERIOD   2
1
              HEAD IN LAYER   1 AT END OF TIME STEP  46 IN STRESS PERIOD    2
  ---------------------------------------------------------------------------

            1           2           3           4           5           6           7           8           9          10
           11          12          13          14          15          16          17          18          19          20
 ........................................................................................................................
   1    9.990       9.507       9.019       8.528       8.032       7.532       7.028       6.519       6.006       5.488    
        4.965       4.437       3.903       3.365       2.821       2.271       1.715       1.154      0.5859      1.1554E-02
   2    9.990       9.507       9.019       8.528       8.032       7.532       7.028       6.519       6.006       5.488    
        4.965       4.437       3.903       3.365       2.821       2.271       1.715       1.154      0.5859      1.1554E-02
   3    9.990       9.507       9.019       8.528       8.032       7.532       7.028       6.519       6.006       5.488    
        4.965       4.437       3.903       3.365       2.821       2.271       1.715       1.154      0.5859      1.1554E-02
   4    9.990       9.507       9.019       8.528       8.032       7.532       7.028       6.519       6.006       5.488    
        4.965       4.437       3.903       3.365       2.821       2.271       1.715       1.154      0.5859      1.1554E-02
   5    9.990       9.507       9.019       8.528       8.032       7.532       7.028       6.519       6.006       5.488    
        4.965       4.437       3.903       3.365       2.821       2.271       1.715       1.154      0.5859      1.1554E-02
   6    9.990       9.507       9.019       8.528       8.032       7.532       7.028       6.519       6.006       5.488    
        4.965       4.437       3.903       3.365       2.821       2.271       1.715       1.154      0.5859      1.1554E-02
   7    9.990       9.507       9.019       8.528       8.032       7.532       7.028       6.519       6.006       5.488    
        4.965       4.437       3.903       3.365       2.821       2.271       1.715       1.154      0.5859      1.1554E-02
   8    9.990       9.507       9.019       8.528       8.032       7.532       7.028       6.519       6.006       5.488    
        4.965       4.437       3.903       3.365       2.821       2.271       1.715       1.154      0.5859      1.1554E-02
   9    9.990       9.507       9.019       8.528       8.032       7.532       7.028       6.519       6.006       5.488    
        4.965       4.437       3.903       3.365       2.821       2.271       1.715       1.154      0.5859      1.1554E-02
  10    9.990       9.507       9.019       8.528       8.032       7.532       7.028       6.519       6.006       5.488    
        4.965       4.437       3.903       3.365       2.821       2.271       1.715       1.154      0.5859      1.1554E-02

 HEAD WILL BE SAVED ON UNIT   51 AT END OF TIME STEP  46, STRESS PERIOD    2

 DRAWDOWN WILL BE SAVED ON UNIT   52 AT END OF TIME STEP  46, STRESS PERIOD    2
1
  VOLUMETRIC BUDGET FOR ENTIRE MODEL AT END OF TIME STEP 46 IN STRESS PERIOD   2
  ------------------------------------------------------------------------------

     CUMULATIVE VOLUMES      L**3       RATES FOR THIS TIME STEP      L**3/T
     ------------------                 ------------------------

           IN:                                      IN:
           ---                                      ---
             STORAGE =           0.1109               STORAGE =       2.4033E-03
       CONSTANT HEAD =           0.0000         CONSTANT HEAD =           0.0000
               WELLS =           0.0000                 WELLS =           0.0000
     HEAD DEP BOUNDS =       27151.9766       HEAD DEP BOUNDS =         577.7015

            TOTAL IN =       27152.0879              TOTAL IN =         577.7039

          OUT:                                     OUT:
          ----                                     ----
             STORAGE =       8.3008E-02               STORAGE =       1.8311E-03
       CONSTANT HEAD =           0.0000         CONSTANT HEAD =           0.0000
               WELLS =           0.0000                 WELLS =           0.0000
     HEAD DEP BOUNDS =       27152.8047       HEAD DEP BOUNDS =         577.7195

           TOTAL OUT =       27152.8867             TOTAL OUT =         577.7213

            IN - OUT =          -0.7988              IN - OUT =      -1.7456E-02

 PERCENT DISCREPANCY =           0.00     PERCENT DISCREPANCY =           0.00






          TIME SUMMARY AT END OF TIME STEP  46 IN STRESS PERIOD    2
                    SECONDS     MINUTES      HOURS       DAYS        YEARS
                    -----------------------------------------------------------
   TIME STEP LENGTH  86400.      1440.0      24.000      1.0000     2.73785E-03
 STRESS PERIOD TIME 3.97440E+06  66240.      1104.0      46.000     0.12594    
         TOTAL TIME 4.06080E+06  67680.      1128.0      47.000     0.12868    
1
 
 SOLVING FOR HEAD 

 OUTPUT CONTROL FOR STRESS PERIOD    2   TIME STEP  47
    SAVE HEAD FOR ALL LAYERS
    SAVE DRAWDOWN FOR ALL LAYERS
    SAVE BUDGET
    PRINT HEAD FOR ALL LAYERS
    PRINT BUDGET
 UBDSV1 SAVING "         STORAGE" ON UNIT  53 AT TIME STEP 47, STRESS PERIOD   2
 UBDSV2 SAVING "   CONSTANT HEAD" ON UNIT  53 AT TIME STEP 47, STRESS PERIOD   2
 UBDSV1 SAVING "FLOW RIGHT FACE " ON UNIT  53 AT TIME STEP 47, STRESS PERIOD   2
 UBDSV1 SAVING "FLOW FRONT FACE " ON UNIT  53 AT TIME STEP 47, STRESS PERIOD   2
1
              HEAD IN LAYER   1 AT END OF TIME STEP  47 IN STRESS PERIOD    2
  ---------------------------------------------------------------------------

            1           2           3           4           5           6           7           8           9          10
           11          12          13          14          15          16          17          18          19          20
 ........................................................................................................................
   1    9.990       9.507       9.019       8.528       8.032       7.532       7.028       6.519       6.006       5.488    
        4.965       4.437       3.903       3.365       2.821       2.271       1.715       1.154      0.5859      1.1554E-02
   2    9.990       9.507       9.019       8.528       8.032       7.532       7.028       6.519       6.006       5.488    
        4.965       4.437       3.903       3.365       2.821       2.271       1.715       1.154      0.5859      1.1554E-02
   3    9.990       9.507       9.019       8.528       8.032       7.532       7.028       6.519       6.006       5.488    
        4.965       4.437       3.903       3.365       2.821       2.271       1.715       1.154      0.5859      1.1554E-02
   4    9.990       9.507       9.019       8.528       8.032       7.532       7.028       6.519       6.006       5.488    
        4.965       4.437       3.903       3.365       2.821       2.271       1.715       1.154      0.5859      1.1554E-02
   5    9.990       9.507       9.019       8.528       8.032       7.532       7.028       6.519       6.006       5.488    
        4.965       4.437       3.903       3.365       2.821       2.271       1.715       1.154      0.5859      1.1554E-02
   6    9.990       9.507       9.019       8.528       8.032       7.532       7.028       6.519       6.006       5.488    
        4.965       4.437       3.903       3.365       2.821       2.271       1.715       1.154      0.5859      1.1554E-02
   7    9.990       9.507       9.019       8.528       8.032       7.532       7.028       6.519       6.006       5.488    
        4.965       4.437       3.903       3.365       2.821       2.271       1.715       1.154      0.5859      1.1554E-02
   8    9.990       9.507       9.019       8.528       8.032       7.532       7.028       6.519       6.006       5.488    
        4.965       4.437       3.903       3.365       2.821       2.271       1.715       1.154      0.5859      1.1554E-02
   9    9.990       9.507       9.019       8.528       8.032       7.532       7.028       6.519       6.006       5.488    
        4.965       4.437       3.903       3.365       2.821       2.271       1.715       1.154      0.5859      1.1554E-02
  10    9.990       9.507       9.019       8.528       8.032       7.532       7.028       6.519       6.006       5.488    
        4.965       4.437       3.903       3.365       2.821       2.271       1.715       1.154      0.5859      1.1554E-02

 HEAD WILL BE SAVED ON UNIT   51 AT END OF TIME STEP  47, STRESS PERIOD    2

 DRAWDOWN WILL BE SAVED ON UNIT   52 AT END OF TIME STEP  47, STRESS PERIOD    2
1
  VOLUMETRIC BUDGET FOR ENTIRE MODEL AT END OF TIME STEP 47 IN STRESS PERIOD   2
  ------------------------------------------------------------------------------

     CUMULATIVE VOLUMES      L**3       RATES FOR THIS TIME STEP      L**3/T
     ------------------                 ------------------------

           IN:                                      IN:
           ---                                      ---
             STORAGE =           0.1133               STORAGE =       2.4033E-03
       CONSTANT HEAD =           0.0000         CONSTANT HEAD =           0.0000
               WELLS =           0.0000                 WELLS =           0.0000
     HEAD DEP BOUNDS =       27729.6777       HEAD DEP BOUNDS =         577.7015

            TOTAL IN =       27729.7910              TOTAL IN =         577.7039

          OUT:                                     OUT:
          ----                                     ----
             STORAGE =       8.4839E-02               STORAGE =       1.8311E-03
       CONSTANT HEAD =           0.0000         CONSTANT HEAD =           0.0000
               WELLS =           0.0000                 WELLS =           0.0000
     HEAD DEP BOUNDS =       27730.5234       HEAD DEP BOUNDS =         577.7195

           TOTAL OUT =       27730.6074             TOTAL OUT =         577.7213

            IN - OUT =          -0.8164              IN - OUT =      -1.7456E-02

 PERCENT DISCREPANCY =           0.00     PERCENT DISCREPANCY =           0.00






          TIME SUMMARY AT END OF TIME STEP  47 IN STRESS PERIOD    2
                    SECONDS     MINUTES      HOURS       DAYS        YEARS
                    -----------------------------------------------------------
   TIME STEP LENGTH  86400.      1440.0      24.000      1.0000     2.73785E-03
 STRESS PERIOD TIME 4.06080E+06  67680.      1128.0      47.000     0.12868    
         TOTAL TIME 4.14720E+06  69120.      1152.0      48.000     0.13142    
1
 
 SOLVING FOR HEAD 

 OUTPUT CONTROL FOR STRESS PERIOD    2   TIME STEP  48
    SAVE HEAD FOR ALL LAYERS
    SAVE DRAWDOWN FOR ALL LAYERS
    SAVE BUDGET
    PRINT HEAD FOR ALL LAYERS
    PRINT BUDGET
 UBDSV1 SAVING "         STORAGE" ON UNIT  53 AT TIME STEP 48, STRESS PERIOD   2
 UBDSV2 SAVING "   CONSTANT HEAD" ON UNIT  53 AT TIME STEP 48, STRESS PERIOD   2
 UBDSV1 SAVING "FLOW RIGHT FACE " ON UNIT  53 AT TIME STEP 48, STRESS PERIOD   2
 UBDSV1 SAVING "FLOW FRONT FACE " ON UNIT  53 AT TIME STEP 48, STRESS PERIOD   2
1
              HEAD IN LAYER   1 AT END OF TIME STEP  48 IN STRESS PERIOD    2
  ---------------------------------------------------------------------------

            1           2           3           4           5           6           7           8           9          10
           11          12          13          14          15          16          17          18          19          20
 ........................................................................................................................
   1    9.990       9.507       9.019       8.528       8.032       7.532       7.028       6.519       6.006       5.488    
        4.965       4.437       3.903       3.365       2.821       2.271       1.715       1.154      0.5859      1.1554E-02
   2    9.990       9.507       9.019       8.528       8.032       7.532       7.028       6.519       6.006       5.488    
        4.965       4.437       3.903       3.365       2.821       2.271       1.715       1.154      0.5859      1.1554E-02
   3    9.990       9.507       9.019       8.528       8.032       7.532       7.028       6.519       6.006       5.488    
        4.965       4.437       3.903       3.365       2.821       2.271       1.715       1.154      0.5859      1.1554E-02
   4    9.990       9.507       9.019       8.528       8.032       7.532       7.028       6.519       6.006       5.488    
        4.965       4.437       3.903       3.365       2.821       2.271       1.715       1.154      0.5859      1.1554E-02
   5    9.990       9.507       9.019       8.528       8.032       7.532       7.028       6.519       6.006       5.488    
        4.965       4.437       3.903       3.365       2.821       2.271       1.715       1.154      0.5859      1.1554E-02
   6    9.990       9.507       9.019       8.528       8.032       7.532       7.028       6.519       6.006       5.488    
        4.965       4.437       3.903       3.365       2.821       2.271       1.715       1.154      0.5859      1.1554E-02
   7    9.990       9.507       9.019       8.528       8.032       7.532       7.028       6.519       6.006       5.488    
        4.965       4.437       3.903       3.365       2.821       2.271       1.715       1.154      0.5859      1.1554E-02
   8    9.990       9.507       9.019       8.528       8.032       7.532       7.028       6.519       6.006       5.488    
        4.965       4.437       3.903       3.365       2.821       2.271       1.715       1.154      0.5859      1.1554E-02
   9    9.990       9.507       9.019       8.528       8.032       7.532       7.028       6.519       6.006       5.488    
        4.965       4.437       3.903       3.365       2.821       2.271       1.715       1.154      0.5859      1.1554E-02
  10    9.990       9.507       9.019       8.528       8.032       7.532       7.028       6.519       6.006       5.488    
        4.965       4.437       3.903       3.365       2.821       2.271       1.715       1.154      0.5859      1.1554E-02

 HEAD WILL BE SAVED ON UNIT   51 AT END OF TIME STEP  48, STRESS PERIOD    2

 DRAWDOWN WILL BE SAVED ON UNIT   52 AT END OF TIME STEP  48, STRESS PERIOD    2
1
  VOLUMETRIC BUDGET FOR ENTIRE MODEL AT END OF TIME STEP 48 IN STRESS PERIOD   2
  ------------------------------------------------------------------------------

     CUMULATIVE VOLUMES      L**3       RATES FOR THIS TIME STEP      L**3/T
     ------------------                 ------------------------

           IN:                                      IN:
           ---                                      ---
             STORAGE =           0.1157               STORAGE =       2.4033E-03
       CONSTANT HEAD =           0.0000         CONSTANT HEAD =           0.0000
               WELLS =           0.0000                 WELLS =           0.0000
     HEAD DEP BOUNDS =       28307.3789       HEAD DEP BOUNDS =         577.7015

            TOTAL IN =       28307.4941              TOTAL IN =         577.7039

          OUT:                                     OUT:
          ----                                     ----
             STORAGE =       8.6670E-02               STORAGE =       1.8311E-03
       CONSTANT HEAD =           0.0000         CONSTANT HEAD =           0.0000
               WELLS =           0.0000                 WELLS =           0.0000
     HEAD DEP BOUNDS =       28308.2422       HEAD DEP BOUNDS =         577.7195

           TOTAL OUT =       28308.3281             TOTAL OUT =         577.7213

            IN - OUT =          -0.8340              IN - OUT =      -1.7456E-02

 PERCENT DISCREPANCY =           0.00     PERCENT DISCREPANCY =           0.00






          TIME SUMMARY AT END OF TIME STEP  48 IN STRESS PERIOD    2
                    SECONDS     MINUTES      HOURS       DAYS        YEARS
                    -----------------------------------------------------------
   TIME STEP LENGTH  86400.      1440.0      24.000      1.0000     2.73785E-03
 STRESS PERIOD TIME 4.14720E+06  69120.      1152.0      48.000     0.13142    
         TOTAL TIME 4.23360E+06  70560.      1176.0      49.000     0.13415    
1
 
 SOLVING FOR HEAD 

 OUTPUT CONTROL FOR STRESS PERIOD    2   TIME STEP  49
    SAVE HEAD FOR ALL LAYERS
    SAVE DRAWDOWN FOR ALL LAYERS
    SAVE BUDGET
    PRINT HEAD FOR ALL LAYERS
    PRINT BUDGET
 UBDSV1 SAVING "         STORAGE" ON UNIT  53 AT TIME STEP 49, STRESS PERIOD   2
 UBDSV2 SAVING "   CONSTANT HEAD" ON UNIT  53 AT TIME STEP 49, STRESS PERIOD   2
 UBDSV1 SAVING "FLOW RIGHT FACE " ON UNIT  53 AT TIME STEP 49, STRESS PERIOD   2
 UBDSV1 SAVING "FLOW FRONT FACE " ON UNIT  53 AT TIME STEP 49, STRESS PERIOD   2
1
              HEAD IN LAYER   1 AT END OF TIME STEP  49 IN STRESS PERIOD    2
  ---------------------------------------------------------------------------

            1           2           3           4           5           6           7           8           9          10
           11          12          13          14          15          16          17          18          19          20
 ........................................................................................................................
   1    9.990       9.507       9.019       8.528       8.032       7.532       7.028       6.519       6.006       5.488    
        4.965       4.437       3.903       3.365       2.821       2.271       1.715       1.154      0.5859      1.1554E-02
   2    9.990       9.507       9.019       8.528       8.032       7.532       7.028       6.519       6.006       5.488    
        4.965       4.437       3.903       3.365       2.821       2.271       1.715       1.154      0.5859      1.1554E-02
   3    9.990       9.507       9.019       8.528       8.032       7.532       7.028       6.519       6.006       5.488    
        4.965       4.437       3.903       3.365       2.821       2.271       1.715       1.154      0.5859      1.1554E-02
   4    9.990       9.507       9.019       8.528       8.032       7.532       7.028       6.519       6.006       5.488    
        4.965       4.437       3.903       3.365       2.821       2.271       1.715       1.154      0.5859      1.1554E-02
   5    9.990       9.507       9.019       8.528       8.032       7.532       7.028       6.519       6.006       5.488    
        4.965       4.437       3.903       3.365       2.821       2.271       1.715       1.154      0.5859      1.1554E-02
   6    9.990       9.507       9.019       8.528       8.032       7.532       7.028       6.519       6.006       5.488    
        4.965       4.437       3.903       3.365       2.821       2.271       1.715       1.154      0.5859      1.1554E-02
   7    9.990       9.507       9.019       8.528       8.032       7.532       7.028       6.519       6.006       5.488    
        4.965       4.437       3.903       3.365       2.821       2.271       1.715       1.154      0.5859      1.1554E-02
   8    9.990       9.507       9.019       8.528       8.032       7.532       7.028       6.519       6.006       5.488    
        4.965       4.437       3.903       3.365       2.821       2.271       1.715       1.154      0.5859      1.1554E-02
   9    9.990       9.507       9.019       8.528       8.032       7.532       7.028       6.519       6.006       5.488    
        4.965       4.437       3.903       3.365       2.821       2.271       1.715       1.154      0.5859      1.1554E-02
  10    9.990       9.507       9.019       8.528       8.032       7.532       7.028       6.519       6.006       5.488    
        4.965       4.437       3.903       3.365       2.821       2.271       1.715       1.154      0.5859      1.1554E-02

 HEAD WILL BE SAVED ON UNIT   51 AT END OF TIME STEP  49, STRESS PERIOD    2

 DRAWDOWN WILL BE SAVED ON UNIT   52 AT END OF TIME STEP  49, STRESS PERIOD    2
1
  VOLUMETRIC BUDGET FOR ENTIRE MODEL AT END OF TIME STEP 49 IN STRESS PERIOD   2
  ------------------------------------------------------------------------------

     CUMULATIVE VOLUMES      L**3       RATES FOR THIS TIME STEP      L**3/T
     ------------------                 ------------------------

           IN:                                      IN:
           ---                                      ---
             STORAGE =           0.1181               STORAGE =       2.4033E-03
       CONSTANT HEAD =           0.0000         CONSTANT HEAD =           0.0000
               WELLS =           0.0000                 WELLS =           0.0000
     HEAD DEP BOUNDS =       28885.0801       HEAD DEP BOUNDS =         577.7015

            TOTAL IN =       28885.1973              TOTAL IN =         577.7039

          OUT:                                     OUT:
          ----                                     ----
             STORAGE =       8.8501E-02               STORAGE =       1.8311E-03
       CONSTANT HEAD =           0.0000         CONSTANT HEAD =           0.0000
               WELLS =           0.0000                 WELLS =           0.0000
     HEAD DEP BOUNDS =       28885.9609       HEAD DEP BOUNDS =         577.7195

           TOTAL OUT =       28886.0488             TOTAL OUT =         577.7213

            IN - OUT =          -0.8516              IN - OUT =      -1.7456E-02

 PERCENT DISCREPANCY =           0.00     PERCENT DISCREPANCY =           0.00






          TIME SUMMARY AT END OF TIME STEP  49 IN STRESS PERIOD    2
                    SECONDS     MINUTES      HOURS       DAYS        YEARS
                    -----------------------------------------------------------
   TIME STEP LENGTH  86400.      1440.0      24.000      1.0000     2.73785E-03
 STRESS PERIOD TIME 4.23360E+06  70560.      1176.0      49.000     0.13415    
         TOTAL TIME 4.32000E+06  72000.      1200.0      50.000     0.13689    
1
 
 SOLVING FOR HEAD 

 OUTPUT CONTROL FOR STRESS PERIOD    2   TIME STEP  50
    SAVE HEAD FOR ALL LAYERS
    SAVE DRAWDOWN FOR ALL LAYERS
    SAVE BUDGET
    PRINT HEAD FOR ALL LAYERS
    PRINT BUDGET
 UBDSV1 SAVING "         STORAGE" ON UNIT  53 AT TIME STEP 50, STRESS PERIOD   2
 UBDSV2 SAVING "   CONSTANT HEAD" ON UNIT  53 AT TIME STEP 50, STRESS PERIOD   2
 UBDSV1 SAVING "FLOW RIGHT FACE " ON UNIT  53 AT TIME STEP 50, STRESS PERIOD   2
 UBDSV1 SAVING "FLOW FRONT FACE " ON UNIT  53 AT TIME STEP 50, STRESS PERIOD   2
1
              HEAD IN LAYER   1 AT END OF TIME STEP  50 IN STRESS PERIOD    2
  ---------------------------------------------------------------------------

            1           2           3           4           5           6           7           8           9          10
           11          12          13          14          15          16          17          18          19          20
 ........................................................................................................................
   1    9.990       9.507       9.019       8.528       8.032       7.532       7.028       6.519       6.006       5.488    
        4.965       4.437       3.903       3.365       2.821       2.271       1.715       1.154      0.5859      1.1554E-02
   2    9.990       9.507       9.019       8.528       8.032       7.532       7.028       6.519       6.006       5.488    
        4.965       4.437       3.903       3.365       2.821       2.271       1.715       1.154      0.5859      1.1554E-02
   3    9.990       9.507       9.019       8.528       8.032       7.532       7.028       6.519       6.006       5.488    
        4.965       4.437       3.903       3.365       2.821       2.271       1.715       1.154      0.5859      1.1554E-02
   4    9.990       9.507       9.019       8.528       8.032       7.532       7.028       6.519       6.006       5.488    
        4.965       4.437       3.903       3.365       2.821       2.271       1.715       1.154      0.5859      1.1554E-02
   5    9.990       9.507       9.019       8.528       8.032       7.532       7.028       6.519       6.006       5.488    
        4.965       4.437       3.903       3.365       2.821       2.271       1.715       1.154      0.5859      1.1554E-02
   6    9.990       9.507       9.019       8.528       8.032       7.532       7.028       6.519       6.006       5.488    
        4.965       4.437       3.903       3.365       2.821       2.271       1.715       1.154      0.5859      1.1554E-02
   7    9.990       9.507       9.019       8.528       8.032       7.532       7.028       6.519       6.006       5.488    
        4.965       4.437       3.903       3.365       2.821       2.271       1.715       1.154      0.5859      1.1554E-02
   8    9.990       9.507       9.019       8.528       8.032       7.532       7.028       6.519       6.006       5.488    
        4.965       4.437       3.903       3.365       2.821       2.271       1.715       1.154      0.5859      1.1554E-02
   9    9.990       9.507       9.019       8.528       8.032       7.532       7.028       6.519       6.006       5.488    
        4.965       4.437       3.903       3.365       2.821       2.271       1.715       1.154      0.5859      1.1554E-02
  10    9.990       9.507       9.019       8.528       8.032       7.532       7.028       6.519       6.006       5.488    
        4.965       4.437       3.903       3.365       2.821       2.271       1.715       1.154      0.5859      1.1554E-02

 HEAD WILL BE SAVED ON UNIT   51 AT END OF TIME STEP  50, STRESS PERIOD    2

 DRAWDOWN WILL BE SAVED ON UNIT   52 AT END OF TIME STEP  50, STRESS PERIOD    2
1
  VOLUMETRIC BUDGET FOR ENTIRE MODEL AT END OF TIME STEP 50 IN STRESS PERIOD   2
  ------------------------------------------------------------------------------

     CUMULATIVE VOLUMES      L**3       RATES FOR THIS TIME STEP      L**3/T
     ------------------                 ------------------------

           IN:                                      IN:
           ---                                      ---
             STORAGE =           0.1205               STORAGE =       2.4033E-03
       CONSTANT HEAD =           0.0000         CONSTANT HEAD =           0.0000
               WELLS =           0.0000                 WELLS =           0.0000
     HEAD DEP BOUNDS =       29462.7812       HEAD DEP BOUNDS =         577.7015

            TOTAL IN =       29462.9023              TOTAL IN =         577.7039

          OUT:                                     OUT:
          ----                                     ----
             STORAGE =       9.0332E-02               STORAGE =       1.8311E-03
       CONSTANT HEAD =           0.0000         CONSTANT HEAD =           0.0000
               WELLS =           0.0000                 WELLS =           0.0000
     HEAD DEP BOUNDS =       29463.6797       HEAD DEP BOUNDS =         577.7195

           TOTAL OUT =       29463.7695             TOTAL OUT =         577.7213

            IN - OUT =          -0.8672              IN - OUT =      -1.7456E-02

 PERCENT DISCREPANCY =           0.00     PERCENT DISCREPANCY =           0.00






          TIME SUMMARY AT END OF TIME STEP  50 IN STRESS PERIOD    2
                    SECONDS     MINUTES      HOURS       DAYS        YEARS
                    -----------------------------------------------------------
   TIME STEP LENGTH  86400.      1440.0      24.000      1.0000     2.73785E-03
 STRESS PERIOD TIME 4.32000E+06  72000.      1200.0      50.000     0.13689    
         TOTAL TIME 4.40640E+06  73440.      1224.0      51.000     0.13963    
1
 
 SOLVING FOR HEAD 

 OUTPUT CONTROL FOR STRESS PERIOD    2   TIME STEP  51
    SAVE HEAD FOR ALL LAYERS
    SAVE DRAWDOWN FOR ALL LAYERS
    SAVE BUDGET
    PRINT HEAD FOR ALL LAYERS
    PRINT BUDGET
 UBDSV1 SAVING "         STORAGE" ON UNIT  53 AT TIME STEP 51, STRESS PERIOD   2
 UBDSV2 SAVING "   CONSTANT HEAD" ON UNIT  53 AT TIME STEP 51, STRESS PERIOD   2
 UBDSV1 SAVING "FLOW RIGHT FACE " ON UNIT  53 AT TIME STEP 51, STRESS PERIOD   2
 UBDSV1 SAVING "FLOW FRONT FACE " ON UNIT  53 AT TIME STEP 51, STRESS PERIOD   2
1
              HEAD IN LAYER   1 AT END OF TIME STEP  51 IN STRESS PERIOD    2
  ---------------------------------------------------------------------------

            1           2           3           4           5           6           7           8           9          10
           11          12          13          14          15          16          17          18          19          20
 ........................................................................................................................
   1    9.990       9.507       9.019       8.528       8.032       7.532       7.028       6.519       6.006       5.488    
        4.965       4.437       3.903       3.365       2.821       2.271       1.715       1.154      0.5859      1.1554E-02
   2    9.990       9.507       9.019       8.528       8.032       7.532       7.028       6.519       6.006       5.488    
        4.965       4.437       3.903       3.365       2.821       2.271       1.715       1.154      0.5859      1.1554E-02
   3    9.990       9.507       9.019       8.528       8.032       7.532       7.028       6.519       6.006       5.488    
        4.965       4.437       3.903       3.365       2.821       2.271       1.715       1.154      0.5859      1.1554E-02
   4    9.990       9.507       9.019       8.528       8.032       7.532       7.028       6.519       6.006       5.488    
        4.965       4.437       3.903       3.365       2.821       2.271       1.715       1.154      0.5859      1.1554E-02
   5    9.990       9.507       9.019       8.528       8.032       7.532       7.028       6.519       6.006       5.488    
        4.965       4.437       3.903       3.365       2.821       2.271       1.715       1.154      0.5859      1.1554E-02
   6    9.990       9.507       9.019       8.528       8.032       7.532       7.028       6.519       6.006       5.488    
        4.965       4.437       3.903       3.365       2.821       2.271       1.715       1.154      0.5859      1.1554E-02
   7    9.990       9.507       9.019       8.528       8.032       7.532       7.028       6.519       6.006       5.488    
        4.965       4.437       3.903       3.365       2.821       2.271       1.715       1.154      0.5859      1.1554E-02
   8    9.990       9.507       9.019       8.528       8.032       7.532       7.028       6.519       6.006       5.488    
        4.965       4.437       3.903       3.365       2.821       2.271       1.715       1.154      0.5859      1.1554E-02
   9    9.990       9.507       9.019       8.528       8.032       7.532       7.028       6.519       6.006       5.488    
        4.965       4.437       3.903       3.365       2.821       2.271       1.715       1.154      0.5859      1.1554E-02
  10    9.990       9.507       9.019       8.528       8.032       7.532       7.028       6.519       6.006       5.488    
        4.965       4.437       3.903       3.365       2.821       2.271       1.715       1.154      0.5859      1.1554E-02

 HEAD WILL BE SAVED ON UNIT   51 AT END OF TIME STEP  51, STRESS PERIOD    2

 DRAWDOWN WILL BE SAVED ON UNIT   52 AT END OF TIME STEP  51, STRESS PERIOD    2
1
  VOLUMETRIC BUDGET FOR ENTIRE MODEL AT END OF TIME STEP 51 IN STRESS PERIOD   2
  ------------------------------------------------------------------------------

     CUMULATIVE VOLUMES      L**3       RATES FOR THIS TIME STEP      L**3/T
     ------------------                 ------------------------

           IN:                                      IN:
           ---                                      ---
             STORAGE =           0.1229               STORAGE =       2.4033E-03
       CONSTANT HEAD =           0.0000         CONSTANT HEAD =           0.0000
               WELLS =           0.0000                 WELLS =           0.0000
     HEAD DEP BOUNDS =       30040.4824       HEAD DEP BOUNDS =         577.7015

            TOTAL IN =       30040.6055              TOTAL IN =         577.7039

          OUT:                                     OUT:
          ----                                     ----
             STORAGE =       9.2163E-02               STORAGE =       1.8311E-03
       CONSTANT HEAD =           0.0000         CONSTANT HEAD =           0.0000
               WELLS =           0.0000                 WELLS =           0.0000
     HEAD DEP BOUNDS =       30041.3984       HEAD DEP BOUNDS =         577.7195

           TOTAL OUT =       30041.4902             TOTAL OUT =         577.7213

            IN - OUT =          -0.8848              IN - OUT =      -1.7456E-02

 PERCENT DISCREPANCY =           0.00     PERCENT DISCREPANCY =           0.00






          TIME SUMMARY AT END OF TIME STEP  51 IN STRESS PERIOD    2
                    SECONDS     MINUTES      HOURS       DAYS        YEARS
                    -----------------------------------------------------------
   TIME STEP LENGTH  86400.      1440.0      24.000      1.0000     2.73785E-03
 STRESS PERIOD TIME 4.40640E+06  73440.      1224.0      51.000     0.13963    
         TOTAL TIME 4.49280E+06  74880.      1248.0      52.000     0.14237    
1
 
 SOLVING FOR HEAD 

 OUTPUT CONTROL FOR STRESS PERIOD    2   TIME STEP  52
    SAVE HEAD FOR ALL LAYERS
    SAVE DRAWDOWN FOR ALL LAYERS
    SAVE BUDGET
    PRINT HEAD FOR ALL LAYERS
    PRINT BUDGET
 UBDSV1 SAVING "         STORAGE" ON UNIT  53 AT TIME STEP 52, STRESS PERIOD   2
 UBDSV2 SAVING "   CONSTANT HEAD" ON UNIT  53 AT TIME STEP 52, STRESS PERIOD   2
 UBDSV1 SAVING "FLOW RIGHT FACE " ON UNIT  53 AT TIME STEP 52, STRESS PERIOD   2
 UBDSV1 SAVING "FLOW FRONT FACE " ON UNIT  53 AT TIME STEP 52, STRESS PERIOD   2
1
              HEAD IN LAYER   1 AT END OF TIME STEP  52 IN STRESS PERIOD    2
  ---------------------------------------------------------------------------

            1           2           3           4           5           6           7           8           9          10
           11          12          13          14          15          16          17          18          19          20
 ........................................................................................................................
   1    9.990       9.507       9.019       8.528       8.032       7.532       7.028       6.519       6.006       5.488    
        4.965       4.437       3.903       3.365       2.821       2.271       1.715       1.154      0.5859      1.1554E-02
   2    9.990       9.507       9.019       8.528       8.032       7.532       7.028       6.519       6.006       5.488    
        4.965       4.437       3.903       3.365       2.821       2.271       1.715       1.154      0.5859      1.1554E-02
   3    9.990       9.507       9.019       8.528       8.032       7.532       7.028       6.519       6.006       5.488    
        4.965       4.437       3.903       3.365       2.821       2.271       1.715       1.154      0.5859      1.1554E-02
   4    9.990       9.507       9.019       8.528       8.032       7.532       7.028       6.519       6.006       5.488    
        4.965       4.437       3.903       3.365       2.821       2.271       1.715       1.154      0.5859      1.1554E-02
   5    9.990       9.507       9.019       8.528       8.032       7.532       7.028       6.519       6.006       5.488    
        4.965       4.437       3.903       3.365       2.821       2.271       1.715       1.154      0.5859      1.1554E-02
   6    9.990       9.507       9.019       8.528       8.032       7.532       7.028       6.519       6.006       5.488    
        4.965       4.437       3.903       3.365       2.821       2.271       1.715       1.154      0.5859      1.1554E-02
   7    9.990       9.507       9.019       8.528       8.032       7.532       7.028       6.519       6.006       5.488    
        4.965       4.437       3.903       3.365       2.821       2.271       1.715       1.154      0.5859      1.1554E-02
   8    9.990       9.507       9.019       8.528       8.032       7.532       7.028       6.519       6.006       5.488    
        4.965       4.437       3.903       3.365       2.821       2.271       1.715       1.154      0.5859      1.1554E-02
   9    9.990       9.507       9.019       8.528       8.032       7.532       7.028       6.519       6.006       5.488    
        4.965       4.437       3.903       3.365       2.821       2.271       1.715       1.154      0.5859      1.1554E-02
  10    9.990       9.507       9.019       8.528       8.032       7.532       7.028       6.519       6.006       5.488    
        4.965       4.437       3.903       3.365       2.821       2.271       1.715       1.154      0.5859      1.1554E-02

 HEAD WILL BE SAVED ON UNIT   51 AT END OF TIME STEP  52, STRESS PERIOD    2

 DRAWDOWN WILL BE SAVED ON UNIT   52 AT END OF TIME STEP  52, STRESS PERIOD    2
1
  VOLUMETRIC BUDGET FOR ENTIRE MODEL AT END OF TIME STEP 52 IN STRESS PERIOD   2
  ------------------------------------------------------------------------------

     CUMULATIVE VOLUMES      L**3       RATES FOR THIS TIME STEP      L**3/T
     ------------------                 ------------------------

           IN:                                      IN:
           ---                                      ---
             STORAGE =           0.1253               STORAGE =       2.4033E-03
       CONSTANT HEAD =           0.0000         CONSTANT HEAD =           0.0000
               WELLS =           0.0000                 WELLS =           0.0000
     HEAD DEP BOUNDS =       30618.1836       HEAD DEP BOUNDS =         577.7015

            TOTAL IN =       30618.3086              TOTAL IN =         577.7039

          OUT:                                     OUT:
          ----                                     ----
             STORAGE =       9.3994E-02               STORAGE =       1.8311E-03
       CONSTANT HEAD =           0.0000         CONSTANT HEAD =           0.0000
               WELLS =           0.0000                 WELLS =           0.0000
     HEAD DEP BOUNDS =       30619.1172       HEAD DEP BOUNDS =         577.7195

           TOTAL OUT =       30619.2109             TOTAL OUT =         577.7213

            IN - OUT =          -0.9023              IN - OUT =      -1.7456E-02

 PERCENT DISCREPANCY =           0.00     PERCENT DISCREPANCY =           0.00






          TIME SUMMARY AT END OF TIME STEP  52 IN STRESS PERIOD    2
                    SECONDS     MINUTES      HOURS       DAYS        YEARS
                    -----------------------------------------------------------
   TIME STEP LENGTH  86400.      1440.0      24.000      1.0000     2.73785E-03
 STRESS PERIOD TIME 4.49280E+06  74880.      1248.0      52.000     0.14237    
         TOTAL TIME 4.57920E+06  76320.      1272.0      53.000     0.14511    
1
 
 SOLVING FOR HEAD 

 OUTPUT CONTROL FOR STRESS PERIOD    2   TIME STEP  53
    SAVE HEAD FOR ALL LAYERS
    SAVE DRAWDOWN FOR ALL LAYERS
    SAVE BUDGET
    PRINT HEAD FOR ALL LAYERS
    PRINT BUDGET
 UBDSV1 SAVING "         STORAGE" ON UNIT  53 AT TIME STEP 53, STRESS PERIOD   2
 UBDSV2 SAVING "   CONSTANT HEAD" ON UNIT  53 AT TIME STEP 53, STRESS PERIOD   2
 UBDSV1 SAVING "FLOW RIGHT FACE " ON UNIT  53 AT TIME STEP 53, STRESS PERIOD   2
 UBDSV1 SAVING "FLOW FRONT FACE " ON UNIT  53 AT TIME STEP 53, STRESS PERIOD   2
1
              HEAD IN LAYER   1 AT END OF TIME STEP  53 IN STRESS PERIOD    2
  ---------------------------------------------------------------------------

            1           2           3           4           5           6           7           8           9          10
           11          12          13          14          15          16          17          18          19          20
 ........................................................................................................................
   1    9.990       9.507       9.019       8.528       8.032       7.532       7.028       6.519       6.006       5.488    
        4.965       4.437       3.903       3.365       2.821       2.271       1.715       1.154      0.5859      1.1554E-02
   2    9.990       9.507       9.019       8.528       8.032       7.532       7.028       6.519       6.006       5.488    
        4.965       4.437       3.903       3.365       2.821       2.271       1.715       1.154      0.5859      1.1554E-02
   3    9.990       9.507       9.019       8.528       8.032       7.532       7.028       6.519       6.006       5.488    
        4.965       4.437       3.903       3.365       2.821       2.271       1.715       1.154      0.5859      1.1554E-02
   4    9.990       9.507       9.019       8.528       8.032       7.532       7.028       6.519       6.006       5.488    
        4.965       4.437       3.903       3.365       2.821       2.271       1.715       1.154      0.5859      1.1554E-02
   5    9.990       9.507       9.019       8.528       8.032       7.532       7.028       6.519       6.006       5.488    
        4.965       4.437       3.903       3.365       2.821       2.271       1.715       1.154      0.5859      1.1554E-02
   6    9.990       9.507       9.019       8.528       8.032       7.532       7.028       6.519       6.006       5.488    
        4.965       4.437       3.903       3.365       2.821       2.271       1.715       1.154      0.5859      1.1554E-02
   7    9.990       9.507       9.019       8.528       8.032       7.532       7.028       6.519       6.006       5.488    
        4.965       4.437       3.903       3.365       2.821       2.271       1.715       1.154      0.5859      1.1554E-02
   8    9.990       9.507       9.019       8.528       8.032       7.532       7.028       6.519       6.006       5.488    
        4.965       4.437       3.903       3.365       2.821       2.271       1.715       1.154      0.5859      1.1554E-02
   9    9.990       9.507       9.019       8.528       8.032       7.532       7.028       6.519       6.006       5.488    
        4.965       4.437       3.903       3.365       2.821       2.271       1.715       1.154      0.5859      1.1554E-02
  10    9.990       9.507       9.019       8.528       8.032       7.532       7.028       6.519       6.006       5.488    
        4.965       4.437       3.903       3.365       2.821       2.271       1.715       1.154      0.5859      1.1554E-02

 HEAD WILL BE SAVED ON UNIT   51 AT END OF TIME STEP  53, STRESS PERIOD    2

 DRAWDOWN WILL BE SAVED ON UNIT   52 AT END OF TIME STEP  53, STRESS PERIOD    2
1
  VOLUMETRIC BUDGET FOR ENTIRE MODEL AT END OF TIME STEP 53 IN STRESS PERIOD   2
  ------------------------------------------------------------------------------

     CUMULATIVE VOLUMES      L**3       RATES FOR THIS TIME STEP      L**3/T
     ------------------                 ------------------------

           IN:                                      IN:
           ---                                      ---
             STORAGE =           0.1277               STORAGE =       2.4033E-03
       CONSTANT HEAD =           0.0000         CONSTANT HEAD =           0.0000
               WELLS =           0.0000                 WELLS =           0.0000
     HEAD DEP BOUNDS =       31195.8848       HEAD DEP BOUNDS =         577.7015

            TOTAL IN =       31196.0117              TOTAL IN =         577.7039

          OUT:                                     OUT:
          ----                                     ----
             STORAGE =       9.5825E-02               STORAGE =       1.8311E-03
       CONSTANT HEAD =           0.0000         CONSTANT HEAD =           0.0000
               WELLS =           0.0000                 WELLS =           0.0000
     HEAD DEP BOUNDS =       31196.8359       HEAD DEP BOUNDS =         577.7195

           TOTAL OUT =       31196.9316             TOTAL OUT =         577.7213

            IN - OUT =          -0.9199              IN - OUT =      -1.7456E-02

 PERCENT DISCREPANCY =           0.00     PERCENT DISCREPANCY =           0.00






          TIME SUMMARY AT END OF TIME STEP  53 IN STRESS PERIOD    2
                    SECONDS     MINUTES      HOURS       DAYS        YEARS
                    -----------------------------------------------------------
   TIME STEP LENGTH  86400.      1440.0      24.000      1.0000     2.73785E-03
 STRESS PERIOD TIME 4.57920E+06  76320.      1272.0      53.000     0.14511    
         TOTAL TIME 4.66560E+06  77760.      1296.0      54.000     0.14784    
1
 
 SOLVING FOR HEAD 

 OUTPUT CONTROL FOR STRESS PERIOD    2   TIME STEP  54
    SAVE HEAD FOR ALL LAYERS
    SAVE DRAWDOWN FOR ALL LAYERS
    SAVE BUDGET
    PRINT HEAD FOR ALL LAYERS
    PRINT BUDGET
 UBDSV1 SAVING "         STORAGE" ON UNIT  53 AT TIME STEP 54, STRESS PERIOD   2
 UBDSV2 SAVING "   CONSTANT HEAD" ON UNIT  53 AT TIME STEP 54, STRESS PERIOD   2
 UBDSV1 SAVING "FLOW RIGHT FACE " ON UNIT  53 AT TIME STEP 54, STRESS PERIOD   2
 UBDSV1 SAVING "FLOW FRONT FACE " ON UNIT  53 AT TIME STEP 54, STRESS PERIOD   2
1
              HEAD IN LAYER   1 AT END OF TIME STEP  54 IN STRESS PERIOD    2
  ---------------------------------------------------------------------------

            1           2           3           4           5           6           7           8           9          10
           11          12          13          14          15          16          17          18          19          20
 ........................................................................................................................
   1    9.990       9.507       9.019       8.528       8.032       7.532       7.028       6.519       6.006       5.488    
        4.965       4.437       3.903       3.365       2.821       2.271       1.715       1.154      0.5859      1.1554E-02
   2    9.990       9.507       9.019       8.528       8.032       7.532       7.028       6.519       6.006       5.488    
        4.965       4.437       3.903       3.365       2.821       2.271       1.715       1.154      0.5859      1.1554E-02
   3    9.990       9.507       9.019       8.528       8.032       7.532       7.028       6.519       6.006       5.488    
        4.965       4.437       3.903       3.365       2.821       2.271       1.715       1.154      0.5859      1.1554E-02
   4    9.990       9.507       9.019       8.528       8.032       7.532       7.028       6.519       6.006       5.488    
        4.965       4.437       3.903       3.365       2.821       2.271       1.715       1.154      0.5859      1.1554E-02
   5    9.990       9.507       9.019       8.528       8.032       7.532       7.028       6.519       6.006       5.488    
        4.965       4.437       3.903       3.365       2.821       2.271       1.715       1.154      0.5859      1.1554E-02
   6    9.990       9.507       9.019       8.528       8.032       7.532       7.028       6.519       6.006       5.488    
        4.965       4.437       3.903       3.365       2.821       2.271       1.715       1.154      0.5859      1.1554E-02
   7    9.990       9.507       9.019       8.528       8.032       7.532       7.028       6.519       6.006       5.488    
        4.965       4.437       3.903       3.365       2.821       2.271       1.715       1.154      0.5859      1.1554E-02
   8    9.990       9.507       9.019       8.528       8.032       7.532       7.028       6.519       6.006       5.488    
        4.965       4.437       3.903       3.365       2.821       2.271       1.715       1.154      0.5859      1.1554E-02
   9    9.990       9.507       9.019       8.528       8.032       7.532       7.028       6.519       6.006       5.488    
        4.965       4.437       3.903       3.365       2.821       2.271       1.715       1.154      0.5859      1.1554E-02
  10    9.990       9.507       9.019       8.528       8.032       7.532       7.028       6.519       6.006       5.488    
        4.965       4.437       3.903       3.365       2.821       2.271       1.715       1.154      0.5859      1.1554E-02

 HEAD WILL BE SAVED ON UNIT   51 AT END OF TIME STEP  54, STRESS PERIOD    2

 DRAWDOWN WILL BE SAVED ON UNIT   52 AT END OF TIME STEP  54, STRESS PERIOD    2
1
  VOLUMETRIC BUDGET FOR ENTIRE MODEL AT END OF TIME STEP 54 IN STRESS PERIOD   2
  ------------------------------------------------------------------------------

     CUMULATIVE VOLUMES      L**3       RATES FOR THIS TIME STEP      L**3/T
     ------------------                 ------------------------

           IN:                                      IN:
           ---                                      ---
             STORAGE =           0.1301               STORAGE =       2.4033E-03
       CONSTANT HEAD =           0.0000         CONSTANT HEAD =           0.0000
               WELLS =           0.0000                 WELLS =           0.0000
     HEAD DEP BOUNDS =       31773.5859       HEAD DEP BOUNDS =         577.7015

            TOTAL IN =       31773.7168              TOTAL IN =         577.7039

          OUT:                                     OUT:
          ----                                     ----
             STORAGE =       9.7656E-02               STORAGE =       1.8311E-03
       CONSTANT HEAD =           0.0000         CONSTANT HEAD =           0.0000
               WELLS =           0.0000                 WELLS =           0.0000
     HEAD DEP BOUNDS =       31774.5547       HEAD DEP BOUNDS =         577.7195

           TOTAL OUT =       31774.6523             TOTAL OUT =         577.7213

            IN - OUT =          -0.9355              IN - OUT =      -1.7456E-02

 PERCENT DISCREPANCY =           0.00     PERCENT DISCREPANCY =           0.00






          TIME SUMMARY AT END OF TIME STEP  54 IN STRESS PERIOD    2
                    SECONDS     MINUTES      HOURS       DAYS        YEARS
                    -----------------------------------------------------------
   TIME STEP LENGTH  86400.      1440.0      24.000      1.0000     2.73785E-03
 STRESS PERIOD TIME 4.66560E+06  77760.      1296.0      54.000     0.14784    
         TOTAL TIME 4.75200E+06  79200.      1320.0      55.000     0.15058    
1
 
 SOLVING FOR HEAD 

 OUTPUT CONTROL FOR STRESS PERIOD    2   TIME STEP  55
    SAVE HEAD FOR ALL LAYERS
    SAVE DRAWDOWN FOR ALL LAYERS
    SAVE BUDGET
    PRINT HEAD FOR ALL LAYERS
    PRINT BUDGET
 UBDSV1 SAVING "         STORAGE" ON UNIT  53 AT TIME STEP 55, STRESS PERIOD   2
 UBDSV2 SAVING "   CONSTANT HEAD" ON UNIT  53 AT TIME STEP 55, STRESS PERIOD   2
 UBDSV1 SAVING "FLOW RIGHT FACE " ON UNIT  53 AT TIME STEP 55, STRESS PERIOD   2
 UBDSV1 SAVING "FLOW FRONT FACE " ON UNIT  53 AT TIME STEP 55, STRESS PERIOD   2
1
              HEAD IN LAYER   1 AT END OF TIME STEP  55 IN STRESS PERIOD    2
  ---------------------------------------------------------------------------

            1           2           3           4           5           6           7           8           9          10
           11          12          13          14          15          16          17          18          19          20
 ........................................................................................................................
   1    9.990       9.507       9.019       8.528       8.032       7.532       7.028       6.519       6.006       5.488    
        4.965       4.437       3.903       3.365       2.821       2.271       1.715       1.154      0.5859      1.1554E-02
   2    9.990       9.507       9.019       8.528       8.032       7.532       7.028       6.519       6.006       5.488    
        4.965       4.437       3.903       3.365       2.821       2.271       1.715       1.154      0.5859      1.1554E-02
   3    9.990       9.507       9.019       8.528       8.032       7.532       7.028       6.519       6.006       5.488    
        4.965       4.437       3.903       3.365       2.821       2.271       1.715       1.154      0.5859      1.1554E-02
   4    9.990       9.507       9.019       8.528       8.032       7.532       7.028       6.519       6.006       5.488    
        4.965       4.437       3.903       3.365       2.821       2.271       1.715       1.154      0.5859      1.1554E-02
   5    9.990       9.507       9.019       8.528       8.032       7.532       7.028       6.519       6.006       5.488    
        4.965       4.437       3.903       3.365       2.821       2.271       1.715       1.154      0.5859      1.1554E-02
   6    9.990       9.507       9.019       8.528       8.032       7.532       7.028       6.519       6.006       5.488    
        4.965       4.437       3.903       3.365       2.821       2.271       1.715       1.154      0.5859      1.1554E-02
   7    9.990       9.507       9.019       8.528       8.032       7.532       7.028       6.519       6.006       5.488    
        4.965       4.437       3.903       3.365       2.821       2.271       1.715       1.154      0.5859      1.1554E-02
   8    9.990       9.507       9.019       8.528       8.032       7.532       7.028       6.519       6.006       5.488    
        4.965       4.437       3.903       3.365       2.821       2.271       1.715       1.154      0.5859      1.1554E-02
   9    9.990       9.507       9.019       8.528       8.032       7.532       7.028       6.519       6.006       5.488    
        4.965       4.437       3.903       3.365       2.821       2.271       1.715       1.154      0.5859      1.1554E-02
  10    9.990       9.507       9.019       8.528       8.032       7.532       7.028       6.519       6.006       5.488    
        4.965       4.437       3.903       3.365       2.821       2.271       1.715       1.154      0.5859      1.1554E-02

 HEAD WILL BE SAVED ON UNIT   51 AT END OF TIME STEP  55, STRESS PERIOD    2

 DRAWDOWN WILL BE SAVED ON UNIT   52 AT END OF TIME STEP  55, STRESS PERIOD    2
1
  VOLUMETRIC BUDGET FOR ENTIRE MODEL AT END OF TIME STEP 55 IN STRESS PERIOD   2
  ------------------------------------------------------------------------------

     CUMULATIVE VOLUMES      L**3       RATES FOR THIS TIME STEP      L**3/T
     ------------------                 ------------------------

           IN:                                      IN:
           ---                                      ---
             STORAGE =           0.1325               STORAGE =       2.4033E-03
       CONSTANT HEAD =           0.0000         CONSTANT HEAD =           0.0000
               WELLS =           0.0000                 WELLS =           0.0000
     HEAD DEP BOUNDS =       32351.2871       HEAD DEP BOUNDS =         577.7015

            TOTAL IN =       32351.4199              TOTAL IN =         577.7039

          OUT:                                     OUT:
          ----                                     ----
             STORAGE =       9.9487E-02               STORAGE =       1.8311E-03
       CONSTANT HEAD =           0.0000         CONSTANT HEAD =           0.0000
               WELLS =           0.0000                 WELLS =           0.0000
     HEAD DEP BOUNDS =       32352.2734       HEAD DEP BOUNDS =         577.7195

           TOTAL OUT =       32352.3730             TOTAL OUT =         577.7213

            IN - OUT =          -0.9531              IN - OUT =      -1.7456E-02

 PERCENT DISCREPANCY =           0.00     PERCENT DISCREPANCY =           0.00






          TIME SUMMARY AT END OF TIME STEP  55 IN STRESS PERIOD    2
                    SECONDS     MINUTES      HOURS       DAYS        YEARS
                    -----------------------------------------------------------
   TIME STEP LENGTH  86400.      1440.0      24.000      1.0000     2.73785E-03
 STRESS PERIOD TIME 4.75200E+06  79200.      1320.0      55.000     0.15058    
         TOTAL TIME 4.83840E+06  80640.      1344.0      56.000     0.15332    
1
 
 SOLVING FOR HEAD 

 OUTPUT CONTROL FOR STRESS PERIOD    2   TIME STEP  56
    SAVE HEAD FOR ALL LAYERS
    SAVE DRAWDOWN FOR ALL LAYERS
    SAVE BUDGET
    PRINT HEAD FOR ALL LAYERS
    PRINT BUDGET
 UBDSV1 SAVING "         STORAGE" ON UNIT  53 AT TIME STEP 56, STRESS PERIOD   2
 UBDSV2 SAVING "   CONSTANT HEAD" ON UNIT  53 AT TIME STEP 56, STRESS PERIOD   2
 UBDSV1 SAVING "FLOW RIGHT FACE " ON UNIT  53 AT TIME STEP 56, STRESS PERIOD   2
 UBDSV1 SAVING "FLOW FRONT FACE " ON UNIT  53 AT TIME STEP 56, STRESS PERIOD   2
1
              HEAD IN LAYER   1 AT END OF TIME STEP  56 IN STRESS PERIOD    2
  ---------------------------------------------------------------------------

            1           2           3           4           5           6           7           8           9          10
           11          12          13          14          15          16          17          18          19          20
 ........................................................................................................................
   1    9.990       9.507       9.019       8.528       8.032       7.532       7.028       6.519       6.006       5.488    
        4.965       4.437       3.903       3.365       2.821       2.271       1.715       1.154      0.5859      1.1554E-02
   2    9.990       9.507       9.019       8.528       8.032       7.532       7.028       6.519       6.006       5.488    
        4.965       4.437       3.903       3.365       2.821       2.271       1.715       1.154      0.5859      1.1554E-02
   3    9.990       9.507       9.019       8.528       8.032       7.532       7.028       6.519       6.006       5.488    
        4.965       4.437       3.903       3.365       2.821       2.271       1.715       1.154      0.5859      1.1554E-02
   4    9.990       9.507       9.019       8.528       8.032       7.532       7.028       6.519       6.006       5.488    
        4.965       4.437       3.903       3.365       2.821       2.271       1.715       1.154      0.5859      1.1554E-02
   5    9.990       9.507       9.019       8.528       8.032       7.532       7.028       6.519       6.006       5.488    
        4.965       4.437       3.903       3.365       2.821       2.271       1.715       1.154      0.5859      1.1554E-02
   6    9.990       9.507       9.019       8.528       8.032       7.532       7.028       6.519       6.006       5.488    
        4.965       4.437       3.903       3.365       2.821       2.271       1.715       1.154      0.5859      1.1554E-02
   7    9.990       9.507       9.019       8.528       8.032       7.532       7.028       6.519       6.006       5.488    
        4.965       4.437       3.903       3.365       2.821       2.271       1.715       1.154      0.5859      1.1554E-02
   8    9.990       9.507       9.019       8.528       8.032       7.532       7.028       6.519       6.006       5.488    
        4.965       4.437       3.903       3.365       2.821       2.271       1.715       1.154      0.5859      1.1554E-02
   9    9.990       9.507       9.019       8.528       8.032       7.532       7.028       6.519       6.006       5.488    
        4.965       4.437       3.903       3.365       2.821       2.271       1.715       1.154      0.5859      1.1554E-02
  10    9.990       9.507       9.019       8.528       8.032       7.532       7.028       6.519       6.006       5.488    
        4.965       4.437       3.903       3.365       2.821       2.271       1.715       1.154      0.5859      1.1554E-02

 HEAD WILL BE SAVED ON UNIT   51 AT END OF TIME STEP  56, STRESS PERIOD    2

 DRAWDOWN WILL BE SAVED ON UNIT   52 AT END OF TIME STEP  56, STRESS PERIOD    2
1
  VOLUMETRIC BUDGET FOR ENTIRE MODEL AT END OF TIME STEP 56 IN STRESS PERIOD   2
  ------------------------------------------------------------------------------

     CUMULATIVE VOLUMES      L**3       RATES FOR THIS TIME STEP      L**3/T
     ------------------                 ------------------------

           IN:                                      IN:
           ---                                      ---
             STORAGE =           0.1350               STORAGE =       2.4033E-03
       CONSTANT HEAD =           0.0000         CONSTANT HEAD =           0.0000
               WELLS =           0.0000                 WELLS =           0.0000
     HEAD DEP BOUNDS =       32928.9883       HEAD DEP BOUNDS =         577.7015

            TOTAL IN =       32929.1250              TOTAL IN =         577.7039

          OUT:                                     OUT:
          ----                                     ----
             STORAGE =           0.1013               STORAGE =       1.8311E-03
       CONSTANT HEAD =           0.0000         CONSTANT HEAD =           0.0000
               WELLS =           0.0000                 WELLS =           0.0000
     HEAD DEP BOUNDS =       32929.9922       HEAD DEP BOUNDS =         577.7195

           TOTAL OUT =       32930.0938             TOTAL OUT =         577.7213

            IN - OUT =          -0.9688              IN - OUT =      -1.7456E-02

 PERCENT DISCREPANCY =           0.00     PERCENT DISCREPANCY =           0.00






          TIME SUMMARY AT END OF TIME STEP  56 IN STRESS PERIOD    2
                    SECONDS     MINUTES      HOURS       DAYS        YEARS
                    -----------------------------------------------------------
   TIME STEP LENGTH  86400.      1440.0      24.000      1.0000     2.73785E-03
 STRESS PERIOD TIME 4.83840E+06  80640.      1344.0      56.000     0.15332    
         TOTAL TIME 4.92480E+06  82080.      1368.0      57.000     0.15606    
1
 
 SOLVING FOR HEAD 

 OUTPUT CONTROL FOR STRESS PERIOD    2   TIME STEP  57
    SAVE HEAD FOR ALL LAYERS
    SAVE DRAWDOWN FOR ALL LAYERS
    SAVE BUDGET
    PRINT HEAD FOR ALL LAYERS
    PRINT BUDGET
 UBDSV1 SAVING "         STORAGE" ON UNIT  53 AT TIME STEP 57, STRESS PERIOD   2
 UBDSV2 SAVING "   CONSTANT HEAD" ON UNIT  53 AT TIME STEP 57, STRESS PERIOD   2
 UBDSV1 SAVING "FLOW RIGHT FACE " ON UNIT  53 AT TIME STEP 57, STRESS PERIOD   2
 UBDSV1 SAVING "FLOW FRONT FACE " ON UNIT  53 AT TIME STEP 57, STRESS PERIOD   2
1
              HEAD IN LAYER   1 AT END OF TIME STEP  57 IN STRESS PERIOD    2
  ---------------------------------------------------------------------------

            1           2           3           4           5           6           7           8           9          10
           11          12          13          14          15          16          17          18          19          20
 ........................................................................................................................
   1    9.990       9.507       9.019       8.528       8.032       7.532       7.028       6.519       6.006       5.488    
        4.965       4.437       3.903       3.365       2.821       2.271       1.715       1.154      0.5859      1.1554E-02
   2    9.990       9.507       9.019       8.528       8.032       7.532       7.028       6.519       6.006       5.488    
        4.965       4.437       3.903       3.365       2.821       2.271       1.715       1.154      0.5859      1.1554E-02
   3    9.990       9.507       9.019       8.528       8.032       7.532       7.028       6.519       6.006       5.488    
        4.965       4.437       3.903       3.365       2.821       2.271       1.715       1.154      0.5859      1.1554E-02
   4    9.990       9.507       9.019       8.528       8.032       7.532       7.028       6.519       6.006       5.488    
        4.965       4.437       3.903       3.365       2.821       2.271       1.715       1.154      0.5859      1.1554E-02
   5    9.990       9.507       9.019       8.528       8.032       7.532       7.028       6.519       6.006       5.488    
        4.965       4.437       3.903       3.365       2.821       2.271       1.715       1.154      0.5859      1.1554E-02
   6    9.990       9.507       9.019       8.528       8.032       7.532       7.028       6.519       6.006       5.488    
        4.965       4.437       3.903       3.365       2.821       2.271       1.715       1.154      0.5859      1.1554E-02
   7    9.990       9.507       9.019       8.528       8.032       7.532       7.028       6.519       6.006       5.488    
        4.965       4.437       3.903       3.365       2.821       2.271       1.715       1.154      0.5859      1.1554E-02
   8    9.990       9.507       9.019       8.528       8.032       7.532       7.028       6.519       6.006       5.488    
        4.965       4.437       3.903       3.365       2.821       2.271       1.715       1.154      0.5859      1.1554E-02
   9    9.990       9.507       9.019       8.528       8.032       7.532       7.028       6.519       6.006       5.488    
        4.965       4.437       3.903       3.365       2.821       2.271       1.715       1.154      0.5859      1.1554E-02
  10    9.990       9.507       9.019       8.528       8.032       7.532       7.028       6.519       6.006       5.488    
        4.965       4.437       3.903       3.365       2.821       2.271       1.715       1.154      0.5859      1.1554E-02

 HEAD WILL BE SAVED ON UNIT   51 AT END OF TIME STEP  57, STRESS PERIOD    2

 DRAWDOWN WILL BE SAVED ON UNIT   52 AT END OF TIME STEP  57, STRESS PERIOD    2
1
  VOLUMETRIC BUDGET FOR ENTIRE MODEL AT END OF TIME STEP 57 IN STRESS PERIOD   2
  ------------------------------------------------------------------------------

     CUMULATIVE VOLUMES      L**3       RATES FOR THIS TIME STEP      L**3/T
     ------------------                 ------------------------

           IN:                                      IN:
           ---                                      ---
             STORAGE =           0.1374               STORAGE =       2.4033E-03
       CONSTANT HEAD =           0.0000         CONSTANT HEAD =           0.0000
               WELLS =           0.0000                 WELLS =           0.0000
     HEAD DEP BOUNDS =       33506.6914       HEAD DEP BOUNDS =         577.7015

            TOTAL IN =       33506.8281              TOTAL IN =         577.7039

          OUT:                                     OUT:
          ----                                     ----
             STORAGE =           0.1031               STORAGE =       1.8311E-03
       CONSTANT HEAD =           0.0000         CONSTANT HEAD =           0.0000
               WELLS =           0.0000                 WELLS =           0.0000
     HEAD DEP BOUNDS =       33507.7109       HEAD DEP BOUNDS =         577.7195

           TOTAL OUT =       33507.8125             TOTAL OUT =         577.7213

            IN - OUT =          -0.9844              IN - OUT =      -1.7456E-02

 PERCENT DISCREPANCY =           0.00     PERCENT DISCREPANCY =           0.00






          TIME SUMMARY AT END OF TIME STEP  57 IN STRESS PERIOD    2
                    SECONDS     MINUTES      HOURS       DAYS        YEARS
                    -----------------------------------------------------------
   TIME STEP LENGTH  86400.      1440.0      24.000      1.0000     2.73785E-03
 STRESS PERIOD TIME 4.92480E+06  82080.      1368.0      57.000     0.15606    
         TOTAL TIME 5.01120E+06  83520.      1392.0      58.000     0.15880    
1
 
 SOLVING FOR HEAD 

 OUTPUT CONTROL FOR STRESS PERIOD    2   TIME STEP  58
    SAVE HEAD FOR ALL LAYERS
    SAVE DRAWDOWN FOR ALL LAYERS
    SAVE BUDGET
    PRINT HEAD FOR ALL LAYERS
    PRINT BUDGET
 UBDSV1 SAVING "         STORAGE" ON UNIT  53 AT TIME STEP 58, STRESS PERIOD   2
 UBDSV2 SAVING "   CONSTANT HEAD" ON UNIT  53 AT TIME STEP 58, STRESS PERIOD   2
 UBDSV1 SAVING "FLOW RIGHT FACE " ON UNIT  53 AT TIME STEP 58, STRESS PERIOD   2
 UBDSV1 SAVING "FLOW FRONT FACE " ON UNIT  53 AT TIME STEP 58, STRESS PERIOD   2
1
              HEAD IN LAYER   1 AT END OF TIME STEP  58 IN STRESS PERIOD    2
  ---------------------------------------------------------------------------

            1           2           3           4           5           6           7           8           9          10
           11          12          13          14          15          16          17          18          19          20
 ........................................................................................................................
   1    9.990       9.507       9.019       8.528       8.032       7.532       7.028       6.519       6.006       5.488    
        4.965       4.437       3.903       3.365       2.821       2.271       1.715       1.154      0.5859      1.1554E-02
   2    9.990       9.507       9.019       8.528       8.032       7.532       7.028       6.519       6.006       5.488    
        4.965       4.437       3.903       3.365       2.821       2.271       1.715       1.154      0.5859      1.1554E-02
   3    9.990       9.507       9.019       8.528       8.032       7.532       7.028       6.519       6.006       5.488    
        4.965       4.437       3.903       3.365       2.821       2.271       1.715       1.154      0.5859      1.1554E-02
   4    9.990       9.507       9.019       8.528       8.032       7.532       7.028       6.519       6.006       5.488    
        4.965       4.437       3.903       3.365       2.821       2.271       1.715       1.154      0.5859      1.1554E-02
   5    9.990       9.507       9.019       8.528       8.032       7.532       7.028       6.519       6.006       5.488    
        4.965       4.437       3.903       3.365       2.821       2.271       1.715       1.154      0.5859      1.1554E-02
   6    9.990       9.507       9.019       8.528       8.032       7.532       7.028       6.519       6.006       5.488    
        4.965       4.437       3.903       3.365       2.821       2.271       1.715       1.154      0.5859      1.1554E-02
   7    9.990       9.507       9.019       8.528       8.032       7.532       7.028       6.519       6.006       5.488    
        4.965       4.437       3.903       3.365       2.821       2.271       1.715       1.154      0.5859      1.1554E-02
   8    9.990       9.507       9.019       8.528       8.032       7.532       7.028       6.519       6.006       5.488    
        4.965       4.437       3.903       3.365       2.821       2.271       1.715       1.154      0.5859      1.1554E-02
   9    9.990       9.507       9.019       8.528       8.032       7.532       7.028       6.519       6.006       5.488    
        4.965       4.437       3.903       3.365       2.821       2.271       1.715       1.154      0.5859      1.1554E-02
  10    9.990       9.507       9.019       8.528       8.032       7.532       7.028       6.519       6.006       5.488    
        4.965       4.437       3.903       3.365       2.821       2.271       1.715       1.154      0.5859      1.1554E-02

 HEAD WILL BE SAVED ON UNIT   51 AT END OF TIME STEP  58, STRESS PERIOD    2

 DRAWDOWN WILL BE SAVED ON UNIT   52 AT END OF TIME STEP  58, STRESS PERIOD    2
1
  VOLUMETRIC BUDGET FOR ENTIRE MODEL AT END OF TIME STEP 58 IN STRESS PERIOD   2
  ------------------------------------------------------------------------------

     CUMULATIVE VOLUMES      L**3       RATES FOR THIS TIME STEP      L**3/T
     ------------------                 ------------------------

           IN:                                      IN:
           ---                                      ---
             STORAGE =           0.1398               STORAGE =       2.4033E-03
       CONSTANT HEAD =           0.0000         CONSTANT HEAD =           0.0000
               WELLS =           0.0000                 WELLS =           0.0000
     HEAD DEP BOUNDS =       34084.3945       HEAD DEP BOUNDS =         577.7015

            TOTAL IN =       34084.5352              TOTAL IN =         577.7039

          OUT:                                     OUT:
          ----                                     ----
             STORAGE =           0.1050               STORAGE =       1.8311E-03
       CONSTANT HEAD =           0.0000         CONSTANT HEAD =           0.0000
               WELLS =           0.0000                 WELLS =           0.0000
     HEAD DEP BOUNDS =       34085.4297       HEAD DEP BOUNDS =         577.7195

           TOTAL OUT =       34085.5352             TOTAL OUT =         577.7213

            IN - OUT =          -1.0000              IN - OUT =      -1.7456E-02

 PERCENT DISCREPANCY =           0.00     PERCENT DISCREPANCY =           0.00






          TIME SUMMARY AT END OF TIME STEP  58 IN STRESS PERIOD    2
                    SECONDS     MINUTES      HOURS       DAYS        YEARS
                    -----------------------------------------------------------
   TIME STEP LENGTH  86400.      1440.0      24.000      1.0000     2.73785E-03
 STRESS PERIOD TIME 5.01120E+06  83520.      1392.0      58.000     0.15880    
         TOTAL TIME 5.09760E+06  84960.      1416.0      59.000     0.16153    
1
 
 SOLVING FOR HEAD 

 OUTPUT CONTROL FOR STRESS PERIOD    2   TIME STEP  59
    SAVE HEAD FOR ALL LAYERS
    SAVE DRAWDOWN FOR ALL LAYERS
    SAVE BUDGET
    PRINT HEAD FOR ALL LAYERS
    PRINT BUDGET
 UBDSV1 SAVING "         STORAGE" ON UNIT  53 AT TIME STEP 59, STRESS PERIOD   2
 UBDSV2 SAVING "   CONSTANT HEAD" ON UNIT  53 AT TIME STEP 59, STRESS PERIOD   2
 UBDSV1 SAVING "FLOW RIGHT FACE " ON UNIT  53 AT TIME STEP 59, STRESS PERIOD   2
 UBDSV1 SAVING "FLOW FRONT FACE " ON UNIT  53 AT TIME STEP 59, STRESS PERIOD   2
1
              HEAD IN LAYER   1 AT END OF TIME STEP  59 IN STRESS PERIOD    2
  ---------------------------------------------------------------------------

            1           2           3           4           5           6           7           8           9          10
           11          12          13          14          15          16          17          18          19          20
 ........................................................................................................................
   1    9.990       9.507       9.019       8.528       8.032       7.532       7.028       6.519       6.006       5.488    
        4.965       4.437       3.903       3.365       2.821       2.271       1.715       1.154      0.5859      1.1554E-02
   2    9.990       9.507       9.019       8.528       8.032       7.532       7.028       6.519       6.006       5.488    
        4.965       4.437       3.903       3.365       2.821       2.271       1.715       1.154      0.5859      1.1554E-02
   3    9.990       9.507       9.019       8.528       8.032       7.532       7.028       6.519       6.006       5.488    
        4.965       4.437       3.903       3.365       2.821       2.271       1.715       1.154      0.5859      1.1554E-02
   4    9.990       9.507       9.019       8.528       8.032       7.532       7.028       6.519       6.006       5.488    
        4.965       4.437       3.903       3.365       2.821       2.271       1.715       1.154      0.5859      1.1554E-02
   5    9.990       9.507       9.019       8.528       8.032       7.532       7.028       6.519       6.006       5.488    
        4.965       4.437       3.903       3.365       2.821       2.271       1.715       1.154      0.5859      1.1554E-02
   6    9.990       9.507       9.019       8.528       8.032       7.532       7.028       6.519       6.006       5.488    
        4.965       4.437       3.903       3.365       2.821       2.271       1.715       1.154      0.5859      1.1554E-02
   7    9.990       9.507       9.019       8.528       8.032       7.532       7.028       6.519       6.006       5.488    
        4.965       4.437       3.903       3.365       2.821       2.271       1.715       1.154      0.5859      1.1554E-02
   8    9.990       9.507       9.019       8.528       8.032       7.532       7.028       6.519       6.006       5.488    
        4.965       4.437       3.903       3.365       2.821       2.271       1.715       1.154      0.5859      1.1554E-02
   9    9.990       9.507       9.019       8.528       8.032       7.532       7.028       6.519       6.006       5.488    
        4.965       4.437       3.903       3.365       2.821       2.271       1.715       1.154      0.5859      1.1554E-02
  10    9.990       9.507       9.019       8.528       8.032       7.532       7.028       6.519       6.006       5.488    
        4.965       4.437       3.903       3.365       2.821       2.271       1.715       1.154      0.5859      1.1554E-02

 HEAD WILL BE SAVED ON UNIT   51 AT END OF TIME STEP  59, STRESS PERIOD    2

 DRAWDOWN WILL BE SAVED ON UNIT   52 AT END OF TIME STEP  59, STRESS PERIOD    2
1
  VOLUMETRIC BUDGET FOR ENTIRE MODEL AT END OF TIME STEP 59 IN STRESS PERIOD   2
  ------------------------------------------------------------------------------

     CUMULATIVE VOLUMES      L**3       RATES FOR THIS TIME STEP      L**3/T
     ------------------                 ------------------------

           IN:                                      IN:
           ---                                      ---
             STORAGE =           0.1422               STORAGE =       2.4033E-03
       CONSTANT HEAD =           0.0000         CONSTANT HEAD =           0.0000
               WELLS =           0.0000                 WELLS =           0.0000
     HEAD DEP BOUNDS =       34662.0977       HEAD DEP BOUNDS =         577.7015

            TOTAL IN =       34662.2383              TOTAL IN =         577.7039

          OUT:                                     OUT:
          ----                                     ----
             STORAGE =           0.1068               STORAGE =       1.8311E-03
       CONSTANT HEAD =           0.0000         CONSTANT HEAD =           0.0000
               WELLS =           0.0000                 WELLS =           0.0000
     HEAD DEP BOUNDS =       34663.1484       HEAD DEP BOUNDS =         577.7195

           TOTAL OUT =       34663.2539             TOTAL OUT =         577.7213

            IN - OUT =          -1.0156              IN - OUT =      -1.7456E-02

 PERCENT DISCREPANCY =           0.00     PERCENT DISCREPANCY =           0.00






          TIME SUMMARY AT END OF TIME STEP  59 IN STRESS PERIOD    2
                    SECONDS     MINUTES      HOURS       DAYS        YEARS
                    -----------------------------------------------------------
   TIME STEP LENGTH  86400.      1440.0      24.000      1.0000     2.73785E-03
 STRESS PERIOD TIME 5.09760E+06  84960.      1416.0      59.000     0.16153    
         TOTAL TIME 5.18400E+06  86400.      1440.0      60.000     0.16427    
1
 
 SOLVING FOR HEAD 

 OUTPUT CONTROL FOR STRESS PERIOD    2   TIME STEP  60
    SAVE HEAD FOR ALL LAYERS
    SAVE DRAWDOWN FOR ALL LAYERS
    SAVE BUDGET
    PRINT HEAD FOR ALL LAYERS
    PRINT BUDGET
 UBDSV1 SAVING "         STORAGE" ON UNIT  53 AT TIME STEP 60, STRESS PERIOD   2
 UBDSV2 SAVING "   CONSTANT HEAD" ON UNIT  53 AT TIME STEP 60, STRESS PERIOD   2
 UBDSV1 SAVING "FLOW RIGHT FACE " ON UNIT  53 AT TIME STEP 60, STRESS PERIOD   2
 UBDSV1 SAVING "FLOW FRONT FACE " ON UNIT  53 AT TIME STEP 60, STRESS PERIOD   2
1
              HEAD IN LAYER   1 AT END OF TIME STEP  60 IN STRESS PERIOD    2
  ---------------------------------------------------------------------------

            1           2           3           4           5           6           7           8           9          10
           11          12          13          14          15          16          17          18          19          20
 ........................................................................................................................
   1    9.990       9.507       9.019       8.528       8.032       7.532       7.028       6.519       6.006       5.488    
        4.965       4.437       3.903       3.365       2.821       2.271       1.715       1.154      0.5859      1.1554E-02
   2    9.990       9.507       9.019       8.528       8.032       7.532       7.028       6.519       6.006       5.488    
        4.965       4.437       3.903       3.365       2.821       2.271       1.715       1.154      0.5859      1.1554E-02
   3    9.990       9.507       9.019       8.528       8.032       7.532       7.028       6.519       6.006       5.488    
        4.965       4.437       3.903       3.365       2.821       2.271       1.715       1.154      0.5859      1.1554E-02
   4    9.990       9.507       9.019       8.528       8.032       7.532       7.028       6.519       6.006       5.488    
        4.965       4.437       3.903       3.365       2.821       2.271       1.715       1.154      0.5859      1.1554E-02
   5    9.990       9.507       9.019       8.528       8.032       7.532       7.028       6.519       6.006       5.488    
        4.965       4.437       3.903       3.365       2.821       2.271       1.715       1.154      0.5859      1.1554E-02
   6    9.990       9.507       9.019       8.528       8.032       7.532       7.028       6.519       6.006       5.488    
        4.965       4.437       3.903       3.365       2.821       2.271       1.715       1.154      0.5859      1.1554E-02
   7    9.990       9.507       9.019       8.528       8.032       7.532       7.028       6.519       6.006       5.488    
        4.965       4.437       3.903       3.365       2.821       2.271       1.715       1.154      0.5859      1.1554E-02
   8    9.990       9.507       9.019       8.528       8.032       7.532       7.028       6.519       6.006       5.488    
        4.965       4.437       3.903       3.365       2.821       2.271       1.715       1.154      0.5859      1.1554E-02
   9    9.990       9.507       9.019       8.528       8.032       7.532       7.028       6.519       6.006       5.488    
        4.965       4.437       3.903       3.365       2.821       2.271       1.715       1.154      0.5859      1.1554E-02
  10    9.990       9.507       9.019       8.528       8.032       7.532       7.028       6.519       6.006       5.488    
        4.965       4.437       3.903       3.365       2.821       2.271       1.715       1.154      0.5859      1.1554E-02

 HEAD WILL BE SAVED ON UNIT   51 AT END OF TIME STEP  60, STRESS PERIOD    2

 DRAWDOWN WILL BE SAVED ON UNIT   52 AT END OF TIME STEP  60, STRESS PERIOD    2
1
  VOLUMETRIC BUDGET FOR ENTIRE MODEL AT END OF TIME STEP 60 IN STRESS PERIOD   2
  ------------------------------------------------------------------------------

     CUMULATIVE VOLUMES      L**3       RATES FOR THIS TIME STEP      L**3/T
     ------------------                 ------------------------

           IN:                                      IN:
           ---                                      ---
             STORAGE =           0.1446               STORAGE =       2.4033E-03
       CONSTANT HEAD =           0.0000         CONSTANT HEAD =           0.0000
               WELLS =           0.0000                 WELLS =           0.0000
     HEAD DEP BOUNDS =       35239.8008       HEAD DEP BOUNDS =         577.7015

            TOTAL IN =       35239.9453              TOTAL IN =         577.7039

          OUT:                                     OUT:
          ----                                     ----
             STORAGE =           0.1086               STORAGE =       1.8311E-03
       CONSTANT HEAD =           0.0000         CONSTANT HEAD =           0.0000
               WELLS =           0.0000                 WELLS =           0.0000
     HEAD DEP BOUNDS =       35240.8672       HEAD DEP BOUNDS =         577.7195

           TOTAL OUT =       35240.9766             TOTAL OUT =         577.7213

            IN - OUT =          -1.0312              IN - OUT =      -1.7456E-02

 PERCENT DISCREPANCY =           0.00     PERCENT DISCREPANCY =           0.00






          TIME SUMMARY AT END OF TIME STEP  60 IN STRESS PERIOD    2
                    SECONDS     MINUTES      HOURS       DAYS        YEARS
                    -----------------------------------------------------------
   TIME STEP LENGTH  86400.      1440.0      24.000      1.0000     2.73785E-03
 STRESS PERIOD TIME 5.18400E+06  86400.      1440.0      60.000     0.16427    
         TOTAL TIME 5.27040E+06  87840.      1464.0      61.000     0.16701    
1
 
 SOLVING FOR HEAD 

 OUTPUT CONTROL FOR STRESS PERIOD    2   TIME STEP  61
    SAVE HEAD FOR ALL LAYERS
    SAVE DRAWDOWN FOR ALL LAYERS
    SAVE BUDGET
    PRINT HEAD FOR ALL LAYERS
    PRINT BUDGET
 UBDSV1 SAVING "         STORAGE" ON UNIT  53 AT TIME STEP 61, STRESS PERIOD   2
 UBDSV2 SAVING "   CONSTANT HEAD" ON UNIT  53 AT TIME STEP 61, STRESS PERIOD   2
 UBDSV1 SAVING "FLOW RIGHT FACE " ON UNIT  53 AT TIME STEP 61, STRESS PERIOD   2
 UBDSV1 SAVING "FLOW FRONT FACE " ON UNIT  53 AT TIME STEP 61, STRESS PERIOD   2
1
              HEAD IN LAYER   1 AT END OF TIME STEP  61 IN STRESS PERIOD    2
  ---------------------------------------------------------------------------

            1           2           3           4           5           6           7           8           9          10
           11          12          13          14          15          16          17          18          19          20
 ........................................................................................................................
   1    9.990       9.507       9.019       8.528       8.032       7.532       7.028       6.519       6.006       5.488    
        4.965       4.437       3.903       3.365       2.821       2.271       1.715       1.154      0.5859      1.1554E-02
   2    9.990       9.507       9.019       8.528       8.032       7.532       7.028       6.519       6.006       5.488    
        4.965       4.437       3.903       3.365       2.821       2.271       1.715       1.154      0.5859      1.1554E-02
   3    9.990       9.507       9.019       8.528       8.032       7.532       7.028       6.519       6.006       5.488    
        4.965       4.437       3.903       3.365       2.821       2.271       1.715       1.154      0.5859      1.1554E-02
   4    9.990       9.507       9.019       8.528       8.032       7.532       7.028       6.519       6.006       5.488    
        4.965       4.437       3.903       3.365       2.821       2.271       1.715       1.154      0.5859      1.1554E-02
   5    9.990       9.507       9.019       8.528       8.032       7.532       7.028       6.519       6.006       5.488    
        4.965       4.437       3.903       3.365       2.821       2.271       1.715       1.154      0.5859      1.1554E-02
   6    9.990       9.507       9.019       8.528       8.032       7.532       7.028       6.519       6.006       5.488    
        4.965       4.437       3.903       3.365       2.821       2.271       1.715       1.154      0.5859      1.1554E-02
   7    9.990       9.507       9.019       8.528       8.032       7.532       7.028       6.519       6.006       5.488    
        4.965       4.437       3.903       3.365       2.821       2.271       1.715       1.154      0.5859      1.1554E-02
   8    9.990       9.507       9.019       8.528       8.032       7.532       7.028       6.519       6.006       5.488    
        4.965       4.437       3.903       3.365       2.821       2.271       1.715       1.154      0.5859      1.1554E-02
   9    9.990       9.507       9.019       8.528       8.032       7.532       7.028       6.519       6.006       5.488    
        4.965       4.437       3.903       3.365       2.821       2.271       1.715       1.154      0.5859      1.1554E-02
  10    9.990       9.507       9.019       8.528       8.032       7.532       7.028       6.519       6.006       5.488    
        4.965       4.437       3.903       3.365       2.821       2.271       1.715       1.154      0.5859      1.1554E-02

 HEAD WILL BE SAVED ON UNIT   51 AT END OF TIME STEP  61, STRESS PERIOD    2

 DRAWDOWN WILL BE SAVED ON UNIT   52 AT END OF TIME STEP  61, STRESS PERIOD    2
1
  VOLUMETRIC BUDGET FOR ENTIRE MODEL AT END OF TIME STEP 61 IN STRESS PERIOD   2
  ------------------------------------------------------------------------------

     CUMULATIVE VOLUMES      L**3       RATES FOR THIS TIME STEP      L**3/T
     ------------------                 ------------------------

           IN:                                      IN:
           ---                                      ---
             STORAGE =           0.1470               STORAGE =       2.4033E-03
       CONSTANT HEAD =           0.0000         CONSTANT HEAD =           0.0000
               WELLS =           0.0000                 WELLS =           0.0000
     HEAD DEP BOUNDS =       35817.5039       HEAD DEP BOUNDS =         577.7015

            TOTAL IN =       35817.6523              TOTAL IN =         577.7039

          OUT:                                     OUT:
          ----                                     ----
             STORAGE =           0.1105               STORAGE =       1.8311E-03
       CONSTANT HEAD =           0.0000         CONSTANT HEAD =           0.0000
               WELLS =           0.0000                 WELLS =           0.0000
     HEAD DEP BOUNDS =       35818.5859       HEAD DEP BOUNDS =         577.7195

           TOTAL OUT =       35818.6953             TOTAL OUT =         577.7213

            IN - OUT =          -1.0430              IN - OUT =      -1.7456E-02

 PERCENT DISCREPANCY =           0.00     PERCENT DISCREPANCY =           0.00






          TIME SUMMARY AT END OF TIME STEP  61 IN STRESS PERIOD    2
                    SECONDS     MINUTES      HOURS       DAYS        YEARS
                    -----------------------------------------------------------
   TIME STEP LENGTH  86400.      1440.0      24.000      1.0000     2.73785E-03
 STRESS PERIOD TIME 5.27040E+06  87840.      1464.0      61.000     0.16701    
         TOTAL TIME 5.35680E+06  89280.      1488.0      62.000     0.16975    
1
 
 SOLVING FOR HEAD 

 OUTPUT CONTROL FOR STRESS PERIOD    2   TIME STEP  62
    SAVE HEAD FOR ALL LAYERS
    SAVE DRAWDOWN FOR ALL LAYERS
    SAVE BUDGET
    PRINT HEAD FOR ALL LAYERS
    PRINT BUDGET
 UBDSV1 SAVING "         STORAGE" ON UNIT  53 AT TIME STEP 62, STRESS PERIOD   2
 UBDSV2 SAVING "   CONSTANT HEAD" ON UNIT  53 AT TIME STEP 62, STRESS PERIOD   2
 UBDSV1 SAVING "FLOW RIGHT FACE " ON UNIT  53 AT TIME STEP 62, STRESS PERIOD   2
 UBDSV1 SAVING "FLOW FRONT FACE " ON UNIT  53 AT TIME STEP 62, STRESS PERIOD   2
1
              HEAD IN LAYER   1 AT END OF TIME STEP  62 IN STRESS PERIOD    2
  ---------------------------------------------------------------------------

            1           2           3           4           5           6           7           8           9          10
           11          12          13          14          15          16          17          18          19          20
 ........................................................................................................................
   1    9.990       9.507       9.019       8.528       8.032       7.532       7.028       6.519       6.006       5.488    
        4.965       4.437       3.903       3.365       2.821       2.271       1.715       1.154      0.5859      1.1554E-02
   2    9.990       9.507       9.019       8.528       8.032       7.532       7.028       6.519       6.006       5.488    
        4.965       4.437       3.903       3.365       2.821       2.271       1.715       1.154      0.5859      1.1554E-02
   3    9.990       9.507       9.019       8.528       8.032       7.532       7.028       6.519       6.006       5.488    
        4.965       4.437       3.903       3.365       2.821       2.271       1.715       1.154      0.5859      1.1554E-02
   4    9.990       9.507       9.019       8.528       8.032       7.532       7.028       6.519       6.006       5.488    
        4.965       4.437       3.903       3.365       2.821       2.271       1.715       1.154      0.5859      1.1554E-02
   5    9.990       9.507       9.019       8.528       8.032       7.532       7.028       6.519       6.006       5.488    
        4.965       4.437       3.903       3.365       2.821       2.271       1.715       1.154      0.5859      1.1554E-02
   6    9.990       9.507       9.019       8.528       8.032       7.532       7.028       6.519       6.006       5.488    
        4.965       4.437       3.903       3.365       2.821       2.271       1.715       1.154      0.5859      1.1554E-02
   7    9.990       9.507       9.019       8.528       8.032       7.532       7.028       6.519       6.006       5.488    
        4.965       4.437       3.903       3.365       2.821       2.271       1.715       1.154      0.5859      1.1554E-02
   8    9.990       9.507       9.019       8.528       8.032       7.532       7.028       6.519       6.006       5.488    
        4.965       4.437       3.903       3.365       2.821       2.271       1.715       1.154      0.5859      1.1554E-02
   9    9.990       9.507       9.019       8.528       8.032       7.532       7.028       6.519       6.006       5.488    
        4.965       4.437       3.903       3.365       2.821       2.271       1.715       1.154      0.5859      1.1554E-02
  10    9.990       9.507       9.019       8.528       8.032       7.532       7.028       6.519       6.006       5.488    
        4.965       4.437       3.903       3.365       2.821       2.271       1.715       1.154      0.5859      1.1554E-02

 HEAD WILL BE SAVED ON UNIT   51 AT END OF TIME STEP  62, STRESS PERIOD    2

 DRAWDOWN WILL BE SAVED ON UNIT   52 AT END OF TIME STEP  62, STRESS PERIOD    2
1
  VOLUMETRIC BUDGET FOR ENTIRE MODEL AT END OF TIME STEP 62 IN STRESS PERIOD   2
  ------------------------------------------------------------------------------

     CUMULATIVE VOLUMES      L**3       RATES FOR THIS TIME STEP      L**3/T
     ------------------                 ------------------------

           IN:                                      IN:
           ---                                      ---
             STORAGE =           0.1494               STORAGE =       2.4033E-03
       CONSTANT HEAD =           0.0000         CONSTANT HEAD =           0.0000
               WELLS =           0.0000                 WELLS =           0.0000
     HEAD DEP BOUNDS =       36395.2070       HEAD DEP BOUNDS =         577.7015

            TOTAL IN =       36395.3555              TOTAL IN =         577.7039

          OUT:                                     OUT:
          ----                                     ----
             STORAGE =           0.1123               STORAGE =       1.8311E-03
       CONSTANT HEAD =           0.0000         CONSTANT HEAD =           0.0000
               WELLS =           0.0000                 WELLS =           0.0000
     HEAD DEP BOUNDS =       36396.3047       HEAD DEP BOUNDS =         577.7195

           TOTAL OUT =       36396.4180             TOTAL OUT =         577.7213

            IN - OUT =          -1.0625              IN - OUT =      -1.7456E-02

 PERCENT DISCREPANCY =           0.00     PERCENT DISCREPANCY =           0.00






          TIME SUMMARY AT END OF TIME STEP  62 IN STRESS PERIOD    2
                    SECONDS     MINUTES      HOURS       DAYS        YEARS
                    -----------------------------------------------------------
   TIME STEP LENGTH  86400.      1440.0      24.000      1.0000     2.73785E-03
 STRESS PERIOD TIME 5.35680E+06  89280.      1488.0      62.000     0.16975    
         TOTAL TIME 5.44320E+06  90720.      1512.0      63.000     0.17248    
1
 
 SOLVING FOR HEAD 

 OUTPUT CONTROL FOR STRESS PERIOD    2   TIME STEP  63
    SAVE HEAD FOR ALL LAYERS
    SAVE DRAWDOWN FOR ALL LAYERS
    SAVE BUDGET
    PRINT HEAD FOR ALL LAYERS
    PRINT BUDGET
 UBDSV1 SAVING "         STORAGE" ON UNIT  53 AT TIME STEP 63, STRESS PERIOD   2
 UBDSV2 SAVING "   CONSTANT HEAD" ON UNIT  53 AT TIME STEP 63, STRESS PERIOD   2
 UBDSV1 SAVING "FLOW RIGHT FACE " ON UNIT  53 AT TIME STEP 63, STRESS PERIOD   2
 UBDSV1 SAVING "FLOW FRONT FACE " ON UNIT  53 AT TIME STEP 63, STRESS PERIOD   2
1
              HEAD IN LAYER   1 AT END OF TIME STEP  63 IN STRESS PERIOD    2
  ---------------------------------------------------------------------------

            1           2           3           4           5           6           7           8           9          10
           11          12          13          14          15          16          17          18          19          20
 ........................................................................................................................
   1    9.990       9.507       9.019       8.528       8.032       7.532       7.028       6.519       6.006       5.488    
        4.965       4.437       3.903       3.365       2.821       2.271       1.715       1.154      0.5859      1.1554E-02
   2    9.990       9.507       9.019       8.528       8.032       7.532       7.028       6.519       6.006       5.488    
        4.965       4.437       3.903       3.365       2.821       2.271       1.715       1.154      0.5859      1.1554E-02
   3    9.990       9.507       9.019       8.528       8.032       7.532       7.028       6.519       6.006       5.488    
        4.965       4.437       3.903       3.365       2.821       2.271       1.715       1.154      0.5859      1.1554E-02
   4    9.990       9.507       9.019       8.528       8.032       7.532       7.028       6.519       6.006       5.488    
        4.965       4.437       3.903       3.365       2.821       2.271       1.715       1.154      0.5859      1.1554E-02
   5    9.990       9.507       9.019       8.528       8.032       7.532       7.028       6.519       6.006       5.488    
        4.965       4.437       3.903       3.365       2.821       2.271       1.715       1.154      0.5859      1.1554E-02
   6    9.990       9.507       9.019       8.528       8.032       7.532       7.028       6.519       6.006       5.488    
        4.965       4.437       3.903       3.365       2.821       2.271       1.715       1.154      0.5859      1.1554E-02
   7    9.990       9.507       9.019       8.528       8.032       7.532       7.028       6.519       6.006       5.488    
        4.965       4.437       3.903       3.365       2.821       2.271       1.715       1.154      0.5859      1.1554E-02
   8    9.990       9.507       9.019       8.528       8.032       7.532       7.028       6.519       6.006       5.488    
        4.965       4.437       3.903       3.365       2.821       2.271       1.715       1.154      0.5859      1.1554E-02
   9    9.990       9.507       9.019       8.528       8.032       7.532       7.028       6.519       6.006       5.488    
        4.965       4.437       3.903       3.365       2.821       2.271       1.715       1.154      0.5859      1.1554E-02
  10    9.990       9.507       9.019       8.528       8.032       7.532       7.028       6.519       6.006       5.488    
        4.965       4.437       3.903       3.365       2.821       2.271       1.715       1.154      0.5859      1.1554E-02

 HEAD WILL BE SAVED ON UNIT   51 AT END OF TIME STEP  63, STRESS PERIOD    2

 DRAWDOWN WILL BE SAVED ON UNIT   52 AT END OF TIME STEP  63, STRESS PERIOD    2
1
  VOLUMETRIC BUDGET FOR ENTIRE MODEL AT END OF TIME STEP 63 IN STRESS PERIOD   2
  ------------------------------------------------------------------------------

     CUMULATIVE VOLUMES      L**3       RATES FOR THIS TIME STEP      L**3/T
     ------------------                 ------------------------

           IN:                                      IN:
           ---                                      ---
             STORAGE =           0.1518               STORAGE =       2.4033E-03
       CONSTANT HEAD =           0.0000         CONSTANT HEAD =           0.0000
               WELLS =           0.0000                 WELLS =           0.0000
     HEAD DEP BOUNDS =       36972.9102       HEAD DEP BOUNDS =         577.7015

            TOTAL IN =       36973.0625              TOTAL IN =         577.7039

          OUT:                                     OUT:
          ----                                     ----
             STORAGE =           0.1141               STORAGE =       1.8311E-03
       CONSTANT HEAD =           0.0000         CONSTANT HEAD =           0.0000
               WELLS =           0.0000                 WELLS =           0.0000
     HEAD DEP BOUNDS =       36974.0234       HEAD DEP BOUNDS =         577.7195

           TOTAL OUT =       36974.1367             TOTAL OUT =         577.7213

            IN - OUT =          -1.0742              IN - OUT =      -1.7456E-02

 PERCENT DISCREPANCY =           0.00     PERCENT DISCREPANCY =           0.00






          TIME SUMMARY AT END OF TIME STEP  63 IN STRESS PERIOD    2
                    SECONDS     MINUTES      HOURS       DAYS        YEARS
                    -----------------------------------------------------------
   TIME STEP LENGTH  86400.      1440.0      24.000      1.0000     2.73785E-03
 STRESS PERIOD TIME 5.44320E+06  90720.      1512.0      63.000     0.17248    
         TOTAL TIME 5.52960E+06  92160.      1536.0      64.000     0.17522    
1
 
 SOLVING FOR HEAD 

 OUTPUT CONTROL FOR STRESS PERIOD    2   TIME STEP  64
    SAVE HEAD FOR ALL LAYERS
    SAVE DRAWDOWN FOR ALL LAYERS
    SAVE BUDGET
    PRINT HEAD FOR ALL LAYERS
    PRINT BUDGET
 UBDSV1 SAVING "         STORAGE" ON UNIT  53 AT TIME STEP 64, STRESS PERIOD   2
 UBDSV2 SAVING "   CONSTANT HEAD" ON UNIT  53 AT TIME STEP 64, STRESS PERIOD   2
 UBDSV1 SAVING "FLOW RIGHT FACE " ON UNIT  53 AT TIME STEP 64, STRESS PERIOD   2
 UBDSV1 SAVING "FLOW FRONT FACE " ON UNIT  53 AT TIME STEP 64, STRESS PERIOD   2
1
              HEAD IN LAYER   1 AT END OF TIME STEP  64 IN STRESS PERIOD    2
  ---------------------------------------------------------------------------

            1           2           3           4           5           6           7           8           9          10
           11          12          13          14          15          16          17          18          19          20
 ........................................................................................................................
   1    9.990       9.507       9.019       8.528       8.032       7.532       7.028       6.519       6.006       5.488    
        4.965       4.437       3.903       3.365       2.821       2.271       1.715       1.154      0.5859      1.1554E-02
   2    9.990       9.507       9.019       8.528       8.032       7.532       7.028       6.519       6.006       5.488    
        4.965       4.437       3.903       3.365       2.821       2.271       1.715       1.154      0.5859      1.1554E-02
   3    9.990       9.507       9.019       8.528       8.032       7.532       7.028       6.519       6.006       5.488    
        4.965       4.437       3.903       3.365       2.821       2.271       1.715       1.154      0.5859      1.1554E-02
   4    9.990       9.507       9.019       8.528       8.032       7.532       7.028       6.519       6.006       5.488    
        4.965       4.437       3.903       3.365       2.821       2.271       1.715       1.154      0.5859      1.1554E-02
   5    9.990       9.507       9.019       8.528       8.032       7.532       7.028       6.519       6.006       5.488    
        4.965       4.437       3.903       3.365       2.821       2.271       1.715       1.154      0.5859      1.1554E-02
   6    9.990       9.507       9.019       8.528       8.032       7.532       7.028       6.519       6.006       5.488    
        4.965       4.437       3.903       3.365       2.821       2.271       1.715       1.154      0.5859      1.1554E-02
   7    9.990       9.507       9.019       8.528       8.032       7.532       7.028       6.519       6.006       5.488    
        4.965       4.437       3.903       3.365       2.821       2.271       1.715       1.154      0.5859      1.1554E-02
   8    9.990       9.507       9.019       8.528       8.032       7.532       7.028       6.519       6.006       5.488    
        4.965       4.437       3.903       3.365       2.821       2.271       1.715       1.154      0.5859      1.1554E-02
   9    9.990       9.507       9.019       8.528       8.032       7.532       7.028       6.519       6.006       5.488    
        4.965       4.437       3.903       3.365       2.821       2.271       1.715       1.154      0.5859      1.1554E-02
  10    9.990       9.507       9.019       8.528       8.032       7.532       7.028       6.519       6.006       5.488    
        4.965       4.437       3.903       3.365       2.821       2.271       1.715       1.154      0.5859      1.1554E-02

 HEAD WILL BE SAVED ON UNIT   51 AT END OF TIME STEP  64, STRESS PERIOD    2

 DRAWDOWN WILL BE SAVED ON UNIT   52 AT END OF TIME STEP  64, STRESS PERIOD    2
1
  VOLUMETRIC BUDGET FOR ENTIRE MODEL AT END OF TIME STEP 64 IN STRESS PERIOD   2
  ------------------------------------------------------------------------------

     CUMULATIVE VOLUMES      L**3       RATES FOR THIS TIME STEP      L**3/T
     ------------------                 ------------------------

           IN:                                      IN:
           ---                                      ---
             STORAGE =           0.1542               STORAGE =       2.4033E-03
       CONSTANT HEAD =           0.0000         CONSTANT HEAD =           0.0000
               WELLS =           0.0000                 WELLS =           0.0000
     HEAD DEP BOUNDS =       37550.6133       HEAD DEP BOUNDS =         577.7015

            TOTAL IN =       37550.7656              TOTAL IN =         577.7039

          OUT:                                     OUT:
          ----                                     ----
             STORAGE =           0.1160               STORAGE =       1.8311E-03
       CONSTANT HEAD =           0.0000         CONSTANT HEAD =           0.0000
               WELLS =           0.0000                 WELLS =           0.0000
     HEAD DEP BOUNDS =       37551.7422       HEAD DEP BOUNDS =         577.7195

           TOTAL OUT =       37551.8594             TOTAL OUT =         577.7213

            IN - OUT =          -1.0938              IN - OUT =      -1.7456E-02

 PERCENT DISCREPANCY =           0.00     PERCENT DISCREPANCY =           0.00






          TIME SUMMARY AT END OF TIME STEP  64 IN STRESS PERIOD    2
                    SECONDS     MINUTES      HOURS       DAYS        YEARS
                    -----------------------------------------------------------
   TIME STEP LENGTH  86400.      1440.0      24.000      1.0000     2.73785E-03
 STRESS PERIOD TIME 5.52960E+06  92160.      1536.0      64.000     0.17522    
         TOTAL TIME 5.61600E+06  93600.      1560.0      65.000     0.17796    
1
 
 SOLVING FOR HEAD 

 OUTPUT CONTROL FOR STRESS PERIOD    2   TIME STEP  65
    SAVE HEAD FOR ALL LAYERS
    SAVE DRAWDOWN FOR ALL LAYERS
    SAVE BUDGET
    PRINT HEAD FOR ALL LAYERS
    PRINT BUDGET
 UBDSV1 SAVING "         STORAGE" ON UNIT  53 AT TIME STEP 65, STRESS PERIOD   2
 UBDSV2 SAVING "   CONSTANT HEAD" ON UNIT  53 AT TIME STEP 65, STRESS PERIOD   2
 UBDSV1 SAVING "FLOW RIGHT FACE " ON UNIT  53 AT TIME STEP 65, STRESS PERIOD   2
 UBDSV1 SAVING "FLOW FRONT FACE " ON UNIT  53 AT TIME STEP 65, STRESS PERIOD   2
1
              HEAD IN LAYER   1 AT END OF TIME STEP  65 IN STRESS PERIOD    2
  ---------------------------------------------------------------------------

            1           2           3           4           5           6           7           8           9          10
           11          12          13          14          15          16          17          18          19          20
 ........................................................................................................................
   1    9.990       9.507       9.019       8.528       8.032       7.532       7.028       6.519       6.006       5.488    
        4.965       4.437       3.903       3.365       2.821       2.271       1.715       1.154      0.5859      1.1554E-02
   2    9.990       9.507       9.019       8.528       8.032       7.532       7.028       6.519       6.006       5.488    
        4.965       4.437       3.903       3.365       2.821       2.271       1.715       1.154      0.5859      1.1554E-02
   3    9.990       9.507       9.019       8.528       8.032       7.532       7.028       6.519       6.006       5.488    
        4.965       4.437       3.903       3.365       2.821       2.271       1.715       1.154      0.5859      1.1554E-02
   4    9.990       9.507       9.019       8.528       8.032       7.532       7.028       6.519       6.006       5.488    
        4.965       4.437       3.903       3.365       2.821       2.271       1.715       1.154      0.5859      1.1554E-02
   5    9.990       9.507       9.019       8.528       8.032       7.532       7.028       6.519       6.006       5.488    
        4.965       4.437       3.903       3.365       2.821       2.271       1.715       1.154      0.5859      1.1554E-02
   6    9.990       9.507       9.019       8.528       8.032       7.532       7.028       6.519       6.006       5.488    
        4.965       4.437       3.903       3.365       2.821       2.271       1.715       1.154      0.5859      1.1554E-02
   7    9.990       9.507       9.019       8.528       8.032       7.532       7.028       6.519       6.006       5.488    
        4.965       4.437       3.903       3.365       2.821       2.271       1.715       1.154      0.5859      1.1554E-02
   8    9.990       9.507       9.019       8.528       8.032       7.532       7.028       6.519       6.006       5.488    
        4.965       4.437       3.903       3.365       2.821       2.271       1.715       1.154      0.5859      1.1554E-02
   9    9.990       9.507       9.019       8.528       8.032       7.532       7.028       6.519       6.006       5.488    
        4.965       4.437       3.903       3.365       2.821       2.271       1.715       1.154      0.5859      1.1554E-02
  10    9.990       9.507       9.019       8.528       8.032       7.532       7.028       6.519       6.006       5.488    
        4.965       4.437       3.903       3.365       2.821       2.271       1.715       1.154      0.5859      1.1554E-02

 HEAD WILL BE SAVED ON UNIT   51 AT END OF TIME STEP  65, STRESS PERIOD    2

 DRAWDOWN WILL BE SAVED ON UNIT   52 AT END OF TIME STEP  65, STRESS PERIOD    2
1
  VOLUMETRIC BUDGET FOR ENTIRE MODEL AT END OF TIME STEP 65 IN STRESS PERIOD   2
  ------------------------------------------------------------------------------

     CUMULATIVE VOLUMES      L**3       RATES FOR THIS TIME STEP      L**3/T
     ------------------                 ------------------------

           IN:                                      IN:
           ---                                      ---
             STORAGE =           0.1566               STORAGE =       2.4033E-03
       CONSTANT HEAD =           0.0000         CONSTANT HEAD =           0.0000
               WELLS =           0.0000                 WELLS =           0.0000
     HEAD DEP BOUNDS =       38128.3164       HEAD DEP BOUNDS =         577.7015

            TOTAL IN =       38128.4727              TOTAL IN =         577.7039

          OUT:                                     OUT:
          ----                                     ----
             STORAGE =           0.1178               STORAGE =       1.8311E-03
       CONSTANT HEAD =           0.0000         CONSTANT HEAD =           0.0000
               WELLS =           0.0000                 WELLS =           0.0000
     HEAD DEP BOUNDS =       38129.4609       HEAD DEP BOUNDS =         577.7195

           TOTAL OUT =       38129.5781             TOTAL OUT =         577.7213

            IN - OUT =          -1.1055              IN - OUT =      -1.7456E-02

 PERCENT DISCREPANCY =           0.00     PERCENT DISCREPANCY =           0.00






          TIME SUMMARY AT END OF TIME STEP  65 IN STRESS PERIOD    2
                    SECONDS     MINUTES      HOURS       DAYS        YEARS
                    -----------------------------------------------------------
   TIME STEP LENGTH  86400.      1440.0      24.000      1.0000     2.73785E-03
 STRESS PERIOD TIME 5.61600E+06  93600.      1560.0      65.000     0.17796    
         TOTAL TIME 5.70240E+06  95040.      1584.0      66.000     0.18070    
1
 
 SOLVING FOR HEAD 

 OUTPUT CONTROL FOR STRESS PERIOD    2   TIME STEP  66
    SAVE HEAD FOR ALL LAYERS
    SAVE DRAWDOWN FOR ALL LAYERS
    SAVE BUDGET
    PRINT HEAD FOR ALL LAYERS
    PRINT BUDGET
 UBDSV1 SAVING "         STORAGE" ON UNIT  53 AT TIME STEP 66, STRESS PERIOD   2
 UBDSV2 SAVING "   CONSTANT HEAD" ON UNIT  53 AT TIME STEP 66, STRESS PERIOD   2
 UBDSV1 SAVING "FLOW RIGHT FACE " ON UNIT  53 AT TIME STEP 66, STRESS PERIOD   2
 UBDSV1 SAVING "FLOW FRONT FACE " ON UNIT  53 AT TIME STEP 66, STRESS PERIOD   2
1
              HEAD IN LAYER   1 AT END OF TIME STEP  66 IN STRESS PERIOD    2
  ---------------------------------------------------------------------------

            1           2           3           4           5           6           7           8           9          10
           11          12          13          14          15          16          17          18          19          20
 ........................................................................................................................
   1    9.990       9.507       9.019       8.528       8.032       7.532       7.028       6.519       6.006       5.488    
        4.965       4.437       3.903       3.365       2.821       2.271       1.715       1.154      0.5859      1.1554E-02
   2    9.990       9.507       9.019       8.528       8.032       7.532       7.028       6.519       6.006       5.488    
        4.965       4.437       3.903       3.365       2.821       2.271       1.715       1.154      0.5859      1.1554E-02
   3    9.990       9.507       9.019       8.528       8.032       7.532       7.028       6.519       6.006       5.488    
        4.965       4.437       3.903       3.365       2.821       2.271       1.715       1.154      0.5859      1.1554E-02
   4    9.990       9.507       9.019       8.528       8.032       7.532       7.028       6.519       6.006       5.488    
        4.965       4.437       3.903       3.365       2.821       2.271       1.715       1.154      0.5859      1.1554E-02
   5    9.990       9.507       9.019       8.528       8.032       7.532       7.028       6.519       6.006       5.488    
        4.965       4.437       3.903       3.365       2.821       2.271       1.715       1.154      0.5859      1.1554E-02
   6    9.990       9.507       9.019       8.528       8.032       7.532       7.028       6.519       6.006       5.488    
        4.965       4.437       3.903       3.365       2.821       2.271       1.715       1.154      0.5859      1.1554E-02
   7    9.990       9.507       9.019       8.528       8.032       7.532       7.028       6.519       6.006       5.488    
        4.965       4.437       3.903       3.365       2.821       2.271       1.715       1.154      0.5859      1.1554E-02
   8    9.990       9.507       9.019       8.528       8.032       7.532       7.028       6.519       6.006       5.488    
        4.965       4.437       3.903       3.365       2.821       2.271       1.715       1.154      0.5859      1.1554E-02
   9    9.990       9.507       9.019       8.528       8.032       7.532       7.028       6.519       6.006       5.488    
        4.965       4.437       3.903       3.365       2.821       2.271       1.715       1.154      0.5859      1.1554E-02
  10    9.990       9.507       9.019       8.528       8.032       7.532       7.028       6.519       6.006       5.488    
        4.965       4.437       3.903       3.365       2.821       2.271       1.715       1.154      0.5859      1.1554E-02

 HEAD WILL BE SAVED ON UNIT   51 AT END OF TIME STEP  66, STRESS PERIOD    2

 DRAWDOWN WILL BE SAVED ON UNIT   52 AT END OF TIME STEP  66, STRESS PERIOD    2
1
  VOLUMETRIC BUDGET FOR ENTIRE MODEL AT END OF TIME STEP 66 IN STRESS PERIOD   2
  ------------------------------------------------------------------------------

     CUMULATIVE VOLUMES      L**3       RATES FOR THIS TIME STEP      L**3/T
     ------------------                 ------------------------

           IN:                                      IN:
           ---                                      ---
             STORAGE =           0.1590               STORAGE =       2.4033E-03
       CONSTANT HEAD =           0.0000         CONSTANT HEAD =           0.0000
               WELLS =           0.0000                 WELLS =           0.0000
     HEAD DEP BOUNDS =       38706.0195       HEAD DEP BOUNDS =         577.7015

            TOTAL IN =       38706.1797              TOTAL IN =         577.7039

          OUT:                                     OUT:
          ----                                     ----
             STORAGE =           0.1196               STORAGE =       1.8311E-03
       CONSTANT HEAD =           0.0000         CONSTANT HEAD =           0.0000
               WELLS =           0.0000                 WELLS =           0.0000
     HEAD DEP BOUNDS =       38707.1797       HEAD DEP BOUNDS =         577.7195

           TOTAL OUT =       38707.3008             TOTAL OUT =         577.7213

            IN - OUT =          -1.1211              IN - OUT =      -1.7456E-02

 PERCENT DISCREPANCY =           0.00     PERCENT DISCREPANCY =           0.00






          TIME SUMMARY AT END OF TIME STEP  66 IN STRESS PERIOD    2
                    SECONDS     MINUTES      HOURS       DAYS        YEARS
                    -----------------------------------------------------------
   TIME STEP LENGTH  86400.      1440.0      24.000      1.0000     2.73785E-03
 STRESS PERIOD TIME 5.70240E+06  95040.      1584.0      66.000     0.18070    
         TOTAL TIME 5.78880E+06  96480.      1608.0      67.000     0.18344    
1
 
 SOLVING FOR HEAD 

 OUTPUT CONTROL FOR STRESS PERIOD    2   TIME STEP  67
    SAVE HEAD FOR ALL LAYERS
    SAVE DRAWDOWN FOR ALL LAYERS
    SAVE BUDGET
    PRINT HEAD FOR ALL LAYERS
    PRINT BUDGET
 UBDSV1 SAVING "         STORAGE" ON UNIT  53 AT TIME STEP 67, STRESS PERIOD   2
 UBDSV2 SAVING "   CONSTANT HEAD" ON UNIT  53 AT TIME STEP 67, STRESS PERIOD   2
 UBDSV1 SAVING "FLOW RIGHT FACE " ON UNIT  53 AT TIME STEP 67, STRESS PERIOD   2
 UBDSV1 SAVING "FLOW FRONT FACE " ON UNIT  53 AT TIME STEP 67, STRESS PERIOD   2
1
              HEAD IN LAYER   1 AT END OF TIME STEP  67 IN STRESS PERIOD    2
  ---------------------------------------------------------------------------

            1           2           3           4           5           6           7           8           9          10
           11          12          13          14          15          16          17          18          19          20
 ........................................................................................................................
   1    9.990       9.507       9.019       8.528       8.032       7.532       7.028       6.519       6.006       5.488    
        4.965       4.437       3.903       3.365       2.821       2.271       1.715       1.154      0.5859      1.1554E-02
   2    9.990       9.507       9.019       8.528       8.032       7.532       7.028       6.519       6.006       5.488    
        4.965       4.437       3.903       3.365       2.821       2.271       1.715       1.154      0.5859      1.1554E-02
   3    9.990       9.507       9.019       8.528       8.032       7.532       7.028       6.519       6.006       5.488    
        4.965       4.437       3.903       3.365       2.821       2.271       1.715       1.154      0.5859      1.1554E-02
   4    9.990       9.507       9.019       8.528       8.032       7.532       7.028       6.519       6.006       5.488    
        4.965       4.437       3.903       3.365       2.821       2.271       1.715       1.154      0.5859      1.1554E-02
   5    9.990       9.507       9.019       8.528       8.032       7.532       7.028       6.519       6.006       5.488    
        4.965       4.437       3.903       3.365       2.821       2.271       1.715       1.154      0.5859      1.1554E-02
   6    9.990       9.507       9.019       8.528       8.032       7.532       7.028       6.519       6.006       5.488    
        4.965       4.437       3.903       3.365       2.821       2.271       1.715       1.154      0.5859      1.1554E-02
   7    9.990       9.507       9.019       8.528       8.032       7.532       7.028       6.519       6.006       5.488    
        4.965       4.437       3.903       3.365       2.821       2.271       1.715       1.154      0.5859      1.1554E-02
   8    9.990       9.507       9.019       8.528       8.032       7.532       7.028       6.519       6.006       5.488    
        4.965       4.437       3.903       3.365       2.821       2.271       1.715       1.154      0.5859      1.1554E-02
   9    9.990       9.507       9.019       8.528       8.032       7.532       7.028       6.519       6.006       5.488    
        4.965       4.437       3.903       3.365       2.821       2.271       1.715       1.154      0.5859      1.1554E-02
  10    9.990       9.507       9.019       8.528       8.032       7.532       7.028       6.519       6.006       5.488    
        4.965       4.437       3.903       3.365       2.821       2.271       1.715       1.154      0.5859      1.1554E-02

 HEAD WILL BE SAVED ON UNIT   51 AT END OF TIME STEP  67, STRESS PERIOD    2

 DRAWDOWN WILL BE SAVED ON UNIT   52 AT END OF TIME STEP  67, STRESS PERIOD    2
1
  VOLUMETRIC BUDGET FOR ENTIRE MODEL AT END OF TIME STEP 67 IN STRESS PERIOD   2
  ------------------------------------------------------------------------------

     CUMULATIVE VOLUMES      L**3       RATES FOR THIS TIME STEP      L**3/T
     ------------------                 ------------------------

           IN:                                      IN:
           ---                                      ---
             STORAGE =           0.1614               STORAGE =       2.4033E-03
       CONSTANT HEAD =           0.0000         CONSTANT HEAD =           0.0000
               WELLS =           0.0000                 WELLS =           0.0000
     HEAD DEP BOUNDS =       39283.7227       HEAD DEP BOUNDS =         577.7015

            TOTAL IN =       39283.8828              TOTAL IN =         577.7039

          OUT:                                     OUT:
          ----                                     ----
             STORAGE =           0.1215               STORAGE =       1.8311E-03
       CONSTANT HEAD =           0.0000         CONSTANT HEAD =           0.0000
               WELLS =           0.0000                 WELLS =           0.0000
     HEAD DEP BOUNDS =       39284.8984       HEAD DEP BOUNDS =         577.7195

           TOTAL OUT =       39285.0195             TOTAL OUT =         577.7213

            IN - OUT =          -1.1367              IN - OUT =      -1.7456E-02

 PERCENT DISCREPANCY =           0.00     PERCENT DISCREPANCY =           0.00






          TIME SUMMARY AT END OF TIME STEP  67 IN STRESS PERIOD    2
                    SECONDS     MINUTES      HOURS       DAYS        YEARS
                    -----------------------------------------------------------
   TIME STEP LENGTH  86400.      1440.0      24.000      1.0000     2.73785E-03
 STRESS PERIOD TIME 5.78880E+06  96480.      1608.0      67.000     0.18344    
         TOTAL TIME 5.87520E+06  97920.      1632.0      68.000     0.18617    
1
 
 SOLVING FOR HEAD 

 OUTPUT CONTROL FOR STRESS PERIOD    2   TIME STEP  68
    SAVE HEAD FOR ALL LAYERS
    SAVE DRAWDOWN FOR ALL LAYERS
    SAVE BUDGET
    PRINT HEAD FOR ALL LAYERS
    PRINT BUDGET
 UBDSV1 SAVING "         STORAGE" ON UNIT  53 AT TIME STEP 68, STRESS PERIOD   2
 UBDSV2 SAVING "   CONSTANT HEAD" ON UNIT  53 AT TIME STEP 68, STRESS PERIOD   2
 UBDSV1 SAVING "FLOW RIGHT FACE " ON UNIT  53 AT TIME STEP 68, STRESS PERIOD   2
 UBDSV1 SAVING "FLOW FRONT FACE " ON UNIT  53 AT TIME STEP 68, STRESS PERIOD   2
1
              HEAD IN LAYER   1 AT END OF TIME STEP  68 IN STRESS PERIOD    2
  ---------------------------------------------------------------------------

            1           2           3           4           5           6           7           8           9          10
           11          12          13          14          15          16          17          18          19          20
 ........................................................................................................................
   1    9.990       9.507       9.019       8.528       8.032       7.532       7.028       6.519       6.006       5.488    
        4.965       4.437       3.903       3.365       2.821       2.271       1.715       1.154      0.5859      1.1554E-02
   2    9.990       9.507       9.019       8.528       8.032       7.532       7.028       6.519       6.006       5.488    
        4.965       4.437       3.903       3.365       2.821       2.271       1.715       1.154      0.5859      1.1554E-02
   3    9.990       9.507       9.019       8.528       8.032       7.532       7.028       6.519       6.006       5.488    
        4.965       4.437       3.903       3.365       2.821       2.271       1.715       1.154      0.5859      1.1554E-02
   4    9.990       9.507       9.019       8.528       8.032       7.532       7.028       6.519       6.006       5.488    
        4.965       4.437       3.903       3.365       2.821       2.271       1.715       1.154      0.5859      1.1554E-02
   5    9.990       9.507       9.019       8.528       8.032       7.532       7.028       6.519       6.006       5.488    
        4.965       4.437       3.903       3.365       2.821       2.271       1.715       1.154      0.5859      1.1554E-02
   6    9.990       9.507       9.019       8.528       8.032       7.532       7.028       6.519       6.006       5.488    
        4.965       4.437       3.903       3.365       2.821       2.271       1.715       1.154      0.5859      1.1554E-02
   7    9.990       9.507       9.019       8.528       8.032       7.532       7.028       6.519       6.006       5.488    
        4.965       4.437       3.903       3.365       2.821       2.271       1.715       1.154      0.5859      1.1554E-02
   8    9.990       9.507       9.019       8.528       8.032       7.532       7.028       6.519       6.006       5.488    
        4.965       4.437       3.903       3.365       2.821       2.271       1.715       1.154      0.5859      1.1554E-02
   9    9.990       9.507       9.019       8.528       8.032       7.532       7.028       6.519       6.006       5.488    
        4.965       4.437       3.903       3.365       2.821       2.271       1.715       1.154      0.5859      1.1554E-02
  10    9.990       9.507       9.019       8.528       8.032       7.532       7.028       6.519       6.006       5.488    
        4.965       4.437       3.903       3.365       2.821       2.271       1.715       1.154      0.5859      1.1554E-02

 HEAD WILL BE SAVED ON UNIT   51 AT END OF TIME STEP  68, STRESS PERIOD    2

 DRAWDOWN WILL BE SAVED ON UNIT   52 AT END OF TIME STEP  68, STRESS PERIOD    2
1
  VOLUMETRIC BUDGET FOR ENTIRE MODEL AT END OF TIME STEP 68 IN STRESS PERIOD   2
  ------------------------------------------------------------------------------

     CUMULATIVE VOLUMES      L**3       RATES FOR THIS TIME STEP      L**3/T
     ------------------                 ------------------------

           IN:                                      IN:
           ---                                      ---
             STORAGE =           0.1638               STORAGE =       2.4033E-03
       CONSTANT HEAD =           0.0000         CONSTANT HEAD =           0.0000
               WELLS =           0.0000                 WELLS =           0.0000
     HEAD DEP BOUNDS =       39861.4258       HEAD DEP BOUNDS =         577.7015

            TOTAL IN =       39861.5898              TOTAL IN =         577.7039

          OUT:                                     OUT:
          ----                                     ----
             STORAGE =           0.1233               STORAGE =       1.8311E-03
       CONSTANT HEAD =           0.0000         CONSTANT HEAD =           0.0000
               WELLS =           0.0000                 WELLS =           0.0000
     HEAD DEP BOUNDS =       39862.6172       HEAD DEP BOUNDS =         577.7195

           TOTAL OUT =       39862.7422             TOTAL OUT =         577.7213

            IN - OUT =          -1.1523              IN - OUT =      -1.7456E-02

 PERCENT DISCREPANCY =           0.00     PERCENT DISCREPANCY =           0.00






          TIME SUMMARY AT END OF TIME STEP  68 IN STRESS PERIOD    2
                    SECONDS     MINUTES      HOURS       DAYS        YEARS
                    -----------------------------------------------------------
   TIME STEP LENGTH  86400.      1440.0      24.000      1.0000     2.73785E-03
 STRESS PERIOD TIME 5.87520E+06  97920.      1632.0      68.000     0.18617    
         TOTAL TIME 5.96160E+06  99360.      1656.0      69.000     0.18891    
1
 
 SOLVING FOR HEAD 

 OUTPUT CONTROL FOR STRESS PERIOD    2   TIME STEP  69
    SAVE HEAD FOR ALL LAYERS
    SAVE DRAWDOWN FOR ALL LAYERS
    SAVE BUDGET
    PRINT HEAD FOR ALL LAYERS
    PRINT BUDGET
 UBDSV1 SAVING "         STORAGE" ON UNIT  53 AT TIME STEP 69, STRESS PERIOD   2
 UBDSV2 SAVING "   CONSTANT HEAD" ON UNIT  53 AT TIME STEP 69, STRESS PERIOD   2
 UBDSV1 SAVING "FLOW RIGHT FACE " ON UNIT  53 AT TIME STEP 69, STRESS PERIOD   2
 UBDSV1 SAVING "FLOW FRONT FACE " ON UNIT  53 AT TIME STEP 69, STRESS PERIOD   2
1
              HEAD IN LAYER   1 AT END OF TIME STEP  69 IN STRESS PERIOD    2
  ---------------------------------------------------------------------------

            1           2           3           4           5           6           7           8           9          10
           11          12          13          14          15          16          17          18          19          20
 ........................................................................................................................
   1    9.990       9.507       9.019       8.528       8.032       7.532       7.028       6.519       6.006       5.488    
        4.965       4.437       3.903       3.365       2.821       2.271       1.715       1.154      0.5859      1.1554E-02
   2    9.990       9.507       9.019       8.528       8.032       7.532       7.028       6.519       6.006       5.488    
        4.965       4.437       3.903       3.365       2.821       2.271       1.715       1.154      0.5859      1.1554E-02
   3    9.990       9.507       9.019       8.528       8.032       7.532       7.028       6.519       6.006       5.488    
        4.965       4.437       3.903       3.365       2.821       2.271       1.715       1.154      0.5859      1.1554E-02
   4    9.990       9.507       9.019       8.528       8.032       7.532       7.028       6.519       6.006       5.488    
        4.965       4.437       3.903       3.365       2.821       2.271       1.715       1.154      0.5859      1.1554E-02
   5    9.990       9.507       9.019       8.528       8.032       7.532       7.028       6.519       6.006       5.488    
        4.965       4.437       3.903       3.365       2.821       2.271       1.715       1.154      0.5859      1.1554E-02
   6    9.990       9.507       9.019       8.528       8.032       7.532       7.028       6.519       6.006       5.488    
        4.965       4.437       3.903       3.365       2.821       2.271       1.715       1.154      0.5859      1.1554E-02
   7    9.990       9.507       9.019       8.528       8.032       7.532       7.028       6.519       6.006       5.488    
        4.965       4.437       3.903       3.365       2.821       2.271       1.715       1.154      0.5859      1.1554E-02
   8    9.990       9.507       9.019       8.528       8.032       7.532       7.028       6.519       6.006       5.488    
        4.965       4.437       3.903       3.365       2.821       2.271       1.715       1.154      0.5859      1.1554E-02
   9    9.990       9.507       9.019       8.528       8.032       7.532       7.028       6.519       6.006       5.488    
        4.965       4.437       3.903       3.365       2.821       2.271       1.715       1.154      0.5859      1.1554E-02
  10    9.990       9.507       9.019       8.528       8.032       7.532       7.028       6.519       6.006       5.488    
        4.965       4.437       3.903       3.365       2.821       2.271       1.715       1.154      0.5859      1.1554E-02

 HEAD WILL BE SAVED ON UNIT   51 AT END OF TIME STEP  69, STRESS PERIOD    2

 DRAWDOWN WILL BE SAVED ON UNIT   52 AT END OF TIME STEP  69, STRESS PERIOD    2
1
  VOLUMETRIC BUDGET FOR ENTIRE MODEL AT END OF TIME STEP 69 IN STRESS PERIOD   2
  ------------------------------------------------------------------------------

     CUMULATIVE VOLUMES      L**3       RATES FOR THIS TIME STEP      L**3/T
     ------------------                 ------------------------

           IN:                                      IN:
           ---                                      ---
             STORAGE =           0.1662               STORAGE =       2.4033E-03
       CONSTANT HEAD =           0.0000         CONSTANT HEAD =           0.0000
               WELLS =           0.0000                 WELLS =           0.0000
     HEAD DEP BOUNDS =       40439.1289       HEAD DEP BOUNDS =         577.7015

            TOTAL IN =       40439.2969              TOTAL IN =         577.7039

          OUT:                                     OUT:
          ----                                     ----
             STORAGE =           0.1251               STORAGE =       1.8311E-03
       CONSTANT HEAD =           0.0000         CONSTANT HEAD =           0.0000
               WELLS =           0.0000                 WELLS =           0.0000
     HEAD DEP BOUNDS =       40440.3359       HEAD DEP BOUNDS =         577.7195

           TOTAL OUT =       40440.4609             TOTAL OUT =         577.7213

            IN - OUT =          -1.1641              IN - OUT =      -1.7456E-02

 PERCENT DISCREPANCY =           0.00     PERCENT DISCREPANCY =           0.00






          TIME SUMMARY AT END OF TIME STEP  69 IN STRESS PERIOD    2
                    SECONDS     MINUTES      HOURS       DAYS        YEARS
                    -----------------------------------------------------------
   TIME STEP LENGTH  86400.      1440.0      24.000      1.0000     2.73785E-03
 STRESS PERIOD TIME 5.96160E+06  99360.      1656.0      69.000     0.18891    
         TOTAL TIME 6.04800E+06 1.00800E+05  1680.0      70.000     0.19165    
1
 
 SOLVING FOR HEAD 

 OUTPUT CONTROL FOR STRESS PERIOD    2   TIME STEP  70
    SAVE HEAD FOR ALL LAYERS
    SAVE DRAWDOWN FOR ALL LAYERS
    SAVE BUDGET
    PRINT HEAD FOR ALL LAYERS
    PRINT BUDGET
 UBDSV1 SAVING "         STORAGE" ON UNIT  53 AT TIME STEP 70, STRESS PERIOD   2
 UBDSV2 SAVING "   CONSTANT HEAD" ON UNIT  53 AT TIME STEP 70, STRESS PERIOD   2
 UBDSV1 SAVING "FLOW RIGHT FACE " ON UNIT  53 AT TIME STEP 70, STRESS PERIOD   2
 UBDSV1 SAVING "FLOW FRONT FACE " ON UNIT  53 AT TIME STEP 70, STRESS PERIOD   2
1
              HEAD IN LAYER   1 AT END OF TIME STEP  70 IN STRESS PERIOD    2
  ---------------------------------------------------------------------------

            1           2           3           4           5           6           7           8           9          10
           11          12          13          14          15          16          17          18          19          20
 ........................................................................................................................
   1    9.990       9.507       9.019       8.528       8.032       7.532       7.028       6.519       6.006       5.488    
        4.965       4.437       3.903       3.365       2.821       2.271       1.715       1.154      0.5859      1.1554E-02
   2    9.990       9.507       9.019       8.528       8.032       7.532       7.028       6.519       6.006       5.488    
        4.965       4.437       3.903       3.365       2.821       2.271       1.715       1.154      0.5859      1.1554E-02
   3    9.990       9.507       9.019       8.528       8.032       7.532       7.028       6.519       6.006       5.488    
        4.965       4.437       3.903       3.365       2.821       2.271       1.715       1.154      0.5859      1.1554E-02
   4    9.990       9.507       9.019       8.528       8.032       7.532       7.028       6.519       6.006       5.488    
        4.965       4.437       3.903       3.365       2.821       2.271       1.715       1.154      0.5859      1.1554E-02
   5    9.990       9.507       9.019       8.528       8.032       7.532       7.028       6.519       6.006       5.488    
        4.965       4.437       3.903       3.365       2.821       2.271       1.715       1.154      0.5859      1.1554E-02
   6    9.990       9.507       9.019       8.528       8.032       7.532       7.028       6.519       6.006       5.488    
        4.965       4.437       3.903       3.365       2.821       2.271       1.715       1.154      0.5859      1.1554E-02
   7    9.990       9.507       9.019       8.528       8.032       7.532       7.028       6.519       6.006       5.488    
        4.965       4.437       3.903       3.365       2.821       2.271       1.715       1.154      0.5859      1.1554E-02
   8    9.990       9.507       9.019       8.528       8.032       7.532       7.028       6.519       6.006       5.488    
        4.965       4.437       3.903       3.365       2.821       2.271       1.715       1.154      0.5859      1.1554E-02
   9    9.990       9.507       9.019       8.528       8.032       7.532       7.028       6.519       6.006       5.488    
        4.965       4.437       3.903       3.365       2.821       2.271       1.715       1.154      0.5859      1.1554E-02
  10    9.990       9.507       9.019       8.528       8.032       7.532       7.028       6.519       6.006       5.488    
        4.965       4.437       3.903       3.365       2.821       2.271       1.715       1.154      0.5859      1.1554E-02

 HEAD WILL BE SAVED ON UNIT   51 AT END OF TIME STEP  70, STRESS PERIOD    2

 DRAWDOWN WILL BE SAVED ON UNIT   52 AT END OF TIME STEP  70, STRESS PERIOD    2
1
  VOLUMETRIC BUDGET FOR ENTIRE MODEL AT END OF TIME STEP 70 IN STRESS PERIOD   2
  ------------------------------------------------------------------------------

     CUMULATIVE VOLUMES      L**3       RATES FOR THIS TIME STEP      L**3/T
     ------------------                 ------------------------

           IN:                                      IN:
           ---                                      ---
             STORAGE =           0.1686               STORAGE =       2.4033E-03
       CONSTANT HEAD =           0.0000         CONSTANT HEAD =           0.0000
               WELLS =           0.0000                 WELLS =           0.0000
     HEAD DEP BOUNDS =       41016.8320       HEAD DEP BOUNDS =         577.7015

            TOTAL IN =       41017.0000              TOTAL IN =         577.7039

          OUT:                                     OUT:
          ----                                     ----
             STORAGE =           0.1270               STORAGE =       1.8311E-03
       CONSTANT HEAD =           0.0000         CONSTANT HEAD =           0.0000
               WELLS =           0.0000                 WELLS =           0.0000
     HEAD DEP BOUNDS =       41018.0547       HEAD DEP BOUNDS =         577.7195

           TOTAL OUT =       41018.1797             TOTAL OUT =         577.7213

            IN - OUT =          -1.1797              IN - OUT =      -1.7456E-02

 PERCENT DISCREPANCY =           0.00     PERCENT DISCREPANCY =           0.00






          TIME SUMMARY AT END OF TIME STEP  70 IN STRESS PERIOD    2
                    SECONDS     MINUTES      HOURS       DAYS        YEARS
                    -----------------------------------------------------------
   TIME STEP LENGTH  86400.      1440.0      24.000      1.0000     2.73785E-03
 STRESS PERIOD TIME 6.04800E+06 1.00800E+05  1680.0      70.000     0.19165    
         TOTAL TIME 6.13440E+06 1.02240E+05  1704.0      71.000     0.19439    
1
 
 SOLVING FOR HEAD 

 OUTPUT CONTROL FOR STRESS PERIOD    2   TIME STEP  71
    SAVE HEAD FOR ALL LAYERS
    SAVE DRAWDOWN FOR ALL LAYERS
    SAVE BUDGET
    PRINT HEAD FOR ALL LAYERS
    PRINT BUDGET
 UBDSV1 SAVING "         STORAGE" ON UNIT  53 AT TIME STEP 71, STRESS PERIOD   2
 UBDSV2 SAVING "   CONSTANT HEAD" ON UNIT  53 AT TIME STEP 71, STRESS PERIOD   2
 UBDSV1 SAVING "FLOW RIGHT FACE " ON UNIT  53 AT TIME STEP 71, STRESS PERIOD   2
 UBDSV1 SAVING "FLOW FRONT FACE " ON UNIT  53 AT TIME STEP 71, STRESS PERIOD   2
1
              HEAD IN LAYER   1 AT END OF TIME STEP  71 IN STRESS PERIOD    2
  ---------------------------------------------------------------------------

            1           2           3           4           5           6           7           8           9          10
           11          12          13          14          15          16          17          18          19          20
 ........................................................................................................................
   1    9.990       9.507       9.019       8.528       8.032       7.532       7.028       6.519       6.006       5.488    
        4.965       4.437       3.903       3.365       2.821       2.271       1.715       1.154      0.5859      1.1554E-02
   2    9.990       9.507       9.019       8.528       8.032       7.532       7.028       6.519       6.006       5.488    
        4.965       4.437       3.903       3.365       2.821       2.271       1.715       1.154      0.5859      1.1554E-02
   3    9.990       9.507       9.019       8.528       8.032       7.532       7.028       6.519       6.006       5.488    
        4.965       4.437       3.903       3.365       2.821       2.271       1.715       1.154      0.5859      1.1554E-02
   4    9.990       9.507       9.019       8.528       8.032       7.532       7.028       6.519       6.006       5.488    
        4.965       4.437       3.903       3.365       2.821       2.271       1.715       1.154      0.5859      1.1554E-02
   5    9.990       9.507       9.019       8.528       8.032       7.532       7.028       6.519       6.006       5.488    
        4.965       4.437       3.903       3.365       2.821       2.271       1.715       1.154      0.5859      1.1554E-02
   6    9.990       9.507       9.019       8.528       8.032       7.532       7.028       6.519       6.006       5.488    
        4.965       4.437       3.903       3.365       2.821       2.271       1.715       1.154      0.5859      1.1554E-02
   7    9.990       9.507       9.019       8.528       8.032       7.532       7.028       6.519       6.006       5.488    
        4.965       4.437       3.903       3.365       2.821       2.271       1.715       1.154      0.5859      1.1554E-02
   8    9.990       9.507       9.019       8.528       8.032       7.532       7.028       6.519       6.006       5.488    
        4.965       4.437       3.903       3.365       2.821       2.271       1.715       1.154      0.5859      1.1554E-02
   9    9.990       9.507       9.019       8.528       8.032       7.532       7.028       6.519       6.006       5.488    
        4.965       4.437       3.903       3.365       2.821       2.271       1.715       1.154      0.5859      1.1554E-02
  10    9.990       9.507       9.019       8.528       8.032       7.532       7.028       6.519       6.006       5.488    
        4.965       4.437       3.903       3.365       2.821       2.271       1.715       1.154      0.5859      1.1554E-02

 HEAD WILL BE SAVED ON UNIT   51 AT END OF TIME STEP  71, STRESS PERIOD    2

 DRAWDOWN WILL BE SAVED ON UNIT   52 AT END OF TIME STEP  71, STRESS PERIOD    2
1
  VOLUMETRIC BUDGET FOR ENTIRE MODEL AT END OF TIME STEP 71 IN STRESS PERIOD   2
  ------------------------------------------------------------------------------

     CUMULATIVE VOLUMES      L**3       RATES FOR THIS TIME STEP      L**3/T
     ------------------                 ------------------------

           IN:                                      IN:
           ---                                      ---
             STORAGE =           0.1710               STORAGE =       2.4033E-03
       CONSTANT HEAD =           0.0000         CONSTANT HEAD =           0.0000
               WELLS =           0.0000                 WELLS =           0.0000
     HEAD DEP BOUNDS =       41594.5352       HEAD DEP BOUNDS =         577.7015

            TOTAL IN =       41594.7070              TOTAL IN =         577.7039

          OUT:                                     OUT:
          ----                                     ----
             STORAGE =           0.1288               STORAGE =       1.8311E-03
       CONSTANT HEAD =           0.0000         CONSTANT HEAD =           0.0000
               WELLS =           0.0000                 WELLS =           0.0000
     HEAD DEP BOUNDS =       41595.7734       HEAD DEP BOUNDS =         577.7195

           TOTAL OUT =       41595.9023             TOTAL OUT =         577.7213

            IN - OUT =          -1.1953              IN - OUT =      -1.7456E-02

 PERCENT DISCREPANCY =           0.00     PERCENT DISCREPANCY =           0.00






          TIME SUMMARY AT END OF TIME STEP  71 IN STRESS PERIOD    2
                    SECONDS     MINUTES      HOURS       DAYS        YEARS
                    -----------------------------------------------------------
   TIME STEP LENGTH  86400.      1440.0      24.000      1.0000     2.73785E-03
 STRESS PERIOD TIME 6.13440E+06 1.02240E+05  1704.0      71.000     0.19439    
         TOTAL TIME 6.22080E+06 1.03680E+05  1728.0      72.000     0.19713    
1
 
 SOLVING FOR HEAD 

 OUTPUT CONTROL FOR STRESS PERIOD    2   TIME STEP  72
    SAVE HEAD FOR ALL LAYERS
    SAVE DRAWDOWN FOR ALL LAYERS
    SAVE BUDGET
    PRINT HEAD FOR ALL LAYERS
    PRINT BUDGET
 UBDSV1 SAVING "         STORAGE" ON UNIT  53 AT TIME STEP 72, STRESS PERIOD   2
 UBDSV2 SAVING "   CONSTANT HEAD" ON UNIT  53 AT TIME STEP 72, STRESS PERIOD   2
 UBDSV1 SAVING "FLOW RIGHT FACE " ON UNIT  53 AT TIME STEP 72, STRESS PERIOD   2
 UBDSV1 SAVING "FLOW FRONT FACE " ON UNIT  53 AT TIME STEP 72, STRESS PERIOD   2
1
              HEAD IN LAYER   1 AT END OF TIME STEP  72 IN STRESS PERIOD    2
  ---------------------------------------------------------------------------

            1           2           3           4           5           6           7           8           9          10
           11          12          13          14          15          16          17          18          19          20
 ........................................................................................................................
   1    9.990       9.507       9.019       8.528       8.032       7.532       7.028       6.519       6.006       5.488    
        4.965       4.437       3.903       3.365       2.821       2.271       1.715       1.154      0.5859      1.1554E-02
   2    9.990       9.507       9.019       8.528       8.032       7.532       7.028       6.519       6.006       5.488    
        4.965       4.437       3.903       3.365       2.821       2.271       1.715       1.154      0.5859      1.1554E-02
   3    9.990       9.507       9.019       8.528       8.032       7.532       7.028       6.519       6.006       5.488    
        4.965       4.437       3.903       3.365       2.821       2.271       1.715       1.154      0.5859      1.1554E-02
   4    9.990       9.507       9.019       8.528       8.032       7.532       7.028       6.519       6.006       5.488    
        4.965       4.437       3.903       3.365       2.821       2.271       1.715       1.154      0.5859      1.1554E-02
   5    9.990       9.507       9.019       8.528       8.032       7.532       7.028       6.519       6.006       5.488    
        4.965       4.437       3.903       3.365       2.821       2.271       1.715       1.154      0.5859      1.1554E-02
   6    9.990       9.507       9.019       8.528       8.032       7.532       7.028       6.519       6.006       5.488    
        4.965       4.437       3.903       3.365       2.821       2.271       1.715       1.154      0.5859      1.1554E-02
   7    9.990       9.507       9.019       8.528       8.032       7.532       7.028       6.519       6.006       5.488    
        4.965       4.437       3.903       3.365       2.821       2.271       1.715       1.154      0.5859      1.1554E-02
   8    9.990       9.507       9.019       8.528       8.032       7.532       7.028       6.519       6.006       5.488    
        4.965       4.437       3.903       3.365       2.821       2.271       1.715       1.154      0.5859      1.1554E-02
   9    9.990       9.507       9.019       8.528       8.032       7.532       7.028       6.519       6.006       5.488    
        4.965       4.437       3.903       3.365       2.821       2.271       1.715       1.154      0.5859      1.1554E-02
  10    9.990       9.507       9.019       8.528       8.032       7.532       7.028       6.519       6.006       5.488    
        4.965       4.437       3.903       3.365       2.821       2.271       1.715       1.154      0.5859      1.1554E-02

 HEAD WILL BE SAVED ON UNIT   51 AT END OF TIME STEP  72, STRESS PERIOD    2

 DRAWDOWN WILL BE SAVED ON UNIT   52 AT END OF TIME STEP  72, STRESS PERIOD    2
1
  VOLUMETRIC BUDGET FOR ENTIRE MODEL AT END OF TIME STEP 72 IN STRESS PERIOD   2
  ------------------------------------------------------------------------------

     CUMULATIVE VOLUMES      L**3       RATES FOR THIS TIME STEP      L**3/T
     ------------------                 ------------------------

           IN:                                      IN:
           ---                                      ---
             STORAGE =           0.1734               STORAGE =       2.4033E-03
       CONSTANT HEAD =           0.0000         CONSTANT HEAD =           0.0000
               WELLS =           0.0000                 WELLS =           0.0000
     HEAD DEP BOUNDS =       42172.2383       HEAD DEP BOUNDS =         577.7015

            TOTAL IN =       42172.4102              TOTAL IN =         577.7039

          OUT:                                     OUT:
          ----                                     ----
             STORAGE =           0.1306               STORAGE =       1.8311E-03
       CONSTANT HEAD =           0.0000         CONSTANT HEAD =           0.0000
               WELLS =           0.0000                 WELLS =           0.0000
     HEAD DEP BOUNDS =       42173.4922       HEAD DEP BOUNDS =         577.7195

           TOTAL OUT =       42173.6211             TOTAL OUT =         577.7213

            IN - OUT =          -1.2109              IN - OUT =      -1.7456E-02

 PERCENT DISCREPANCY =           0.00     PERCENT DISCREPANCY =           0.00






          TIME SUMMARY AT END OF TIME STEP  72 IN STRESS PERIOD    2
                    SECONDS     MINUTES      HOURS       DAYS        YEARS
                    -----------------------------------------------------------
   TIME STEP LENGTH  86400.      1440.0      24.000      1.0000     2.73785E-03
 STRESS PERIOD TIME 6.22080E+06 1.03680E+05  1728.0      72.000     0.19713    
         TOTAL TIME 6.30720E+06 1.05120E+05  1752.0      73.000     0.19986    
1
 
 SOLVING FOR HEAD 

 OUTPUT CONTROL FOR STRESS PERIOD    2   TIME STEP  73
    SAVE HEAD FOR ALL LAYERS
    SAVE DRAWDOWN FOR ALL LAYERS
    SAVE BUDGET
    PRINT HEAD FOR ALL LAYERS
    PRINT BUDGET
 UBDSV1 SAVING "         STORAGE" ON UNIT  53 AT TIME STEP 73, STRESS PERIOD   2
 UBDSV2 SAVING "   CONSTANT HEAD" ON UNIT  53 AT TIME STEP 73, STRESS PERIOD   2
 UBDSV1 SAVING "FLOW RIGHT FACE " ON UNIT  53 AT TIME STEP 73, STRESS PERIOD   2
 UBDSV1 SAVING "FLOW FRONT FACE " ON UNIT  53 AT TIME STEP 73, STRESS PERIOD   2
1
              HEAD IN LAYER   1 AT END OF TIME STEP  73 IN STRESS PERIOD    2
  ---------------------------------------------------------------------------

            1           2           3           4           5           6           7           8           9          10
           11          12          13          14          15          16          17          18          19          20
 ........................................................................................................................
   1    9.990       9.507       9.019       8.528       8.032       7.532       7.028       6.519       6.006       5.488    
        4.965       4.437       3.903       3.365       2.821       2.271       1.715       1.154      0.5859      1.1554E-02
   2    9.990       9.507       9.019       8.528       8.032       7.532       7.028       6.519       6.006       5.488    
        4.965       4.437       3.903       3.365       2.821       2.271       1.715       1.154      0.5859      1.1554E-02
   3    9.990       9.507       9.019       8.528       8.032       7.532       7.028       6.519       6.006       5.488    
        4.965       4.437       3.903       3.365       2.821       2.271       1.715       1.154      0.5859      1.1554E-02
   4    9.990       9.507       9.019       8.528       8.032       7.532       7.028       6.519       6.006       5.488    
        4.965       4.437       3.903       3.365       2.821       2.271       1.715       1.154      0.5859      1.1554E-02
   5    9.990       9.507       9.019       8.528       8.032       7.532       7.028       6.519       6.006       5.488    
        4.965       4.437       3.903       3.365       2.821       2.271       1.715       1.154      0.5859      1.1554E-02
   6    9.990       9.507       9.019       8.528       8.032       7.532       7.028       6.519       6.006       5.488    
        4.965       4.437       3.903       3.365       2.821       2.271       1.715       1.154      0.5859      1.1554E-02
   7    9.990       9.507       9.019       8.528       8.032       7.532       7.028       6.519       6.006       5.488    
        4.965       4.437       3.903       3.365       2.821       2.271       1.715       1.154      0.5859      1.1554E-02
   8    9.990       9.507       9.019       8.528       8.032       7.532       7.028       6.519       6.006       5.488    
        4.965       4.437       3.903       3.365       2.821       2.271       1.715       1.154      0.5859      1.1554E-02
   9    9.990       9.507       9.019       8.528       8.032       7.532       7.028       6.519       6.006       5.488    
        4.965       4.437       3.903       3.365       2.821       2.271       1.715       1.154      0.5859      1.1554E-02
  10    9.990       9.507       9.019       8.528       8.032       7.532       7.028       6.519       6.006       5.488    
        4.965       4.437       3.903       3.365       2.821       2.271       1.715       1.154      0.5859      1.1554E-02

 HEAD WILL BE SAVED ON UNIT   51 AT END OF TIME STEP  73, STRESS PERIOD    2

 DRAWDOWN WILL BE SAVED ON UNIT   52 AT END OF TIME STEP  73, STRESS PERIOD    2
1
  VOLUMETRIC BUDGET FOR ENTIRE MODEL AT END OF TIME STEP 73 IN STRESS PERIOD   2
  ------------------------------------------------------------------------------

     CUMULATIVE VOLUMES      L**3       RATES FOR THIS TIME STEP      L**3/T
     ------------------                 ------------------------

           IN:                                      IN:
           ---                                      ---
             STORAGE =           0.1758               STORAGE =       2.4033E-03
       CONSTANT HEAD =           0.0000         CONSTANT HEAD =           0.0000
               WELLS =           0.0000                 WELLS =           0.0000
     HEAD DEP BOUNDS =       42749.9414       HEAD DEP BOUNDS =         577.7015

            TOTAL IN =       42750.1172              TOTAL IN =         577.7039

          OUT:                                     OUT:
          ----                                     ----
             STORAGE =           0.1324               STORAGE =       1.8311E-03
       CONSTANT HEAD =           0.0000         CONSTANT HEAD =           0.0000
               WELLS =           0.0000                 WELLS =           0.0000
     HEAD DEP BOUNDS =       42751.2109       HEAD DEP BOUNDS =         577.7195

           TOTAL OUT =       42751.3438             TOTAL OUT =         577.7213

            IN - OUT =          -1.2266              IN - OUT =      -1.7456E-02

 PERCENT DISCREPANCY =           0.00     PERCENT DISCREPANCY =           0.00






          TIME SUMMARY AT END OF TIME STEP  73 IN STRESS PERIOD    2
                    SECONDS     MINUTES      HOURS       DAYS        YEARS
                    -----------------------------------------------------------
   TIME STEP LENGTH  86400.      1440.0      24.000      1.0000     2.73785E-03
 STRESS PERIOD TIME 6.30720E+06 1.05120E+05  1752.0      73.000     0.19986    
         TOTAL TIME 6.39360E+06 1.06560E+05  1776.0      74.000     0.20260    
1
 
 SOLVING FOR HEAD 

 OUTPUT CONTROL FOR STRESS PERIOD    2   TIME STEP  74
    SAVE HEAD FOR ALL LAYERS
    SAVE DRAWDOWN FOR ALL LAYERS
    SAVE BUDGET
    PRINT HEAD FOR ALL LAYERS
    PRINT BUDGET
 UBDSV1 SAVING "         STORAGE" ON UNIT  53 AT TIME STEP 74, STRESS PERIOD   2
 UBDSV2 SAVING "   CONSTANT HEAD" ON UNIT  53 AT TIME STEP 74, STRESS PERIOD   2
 UBDSV1 SAVING "FLOW RIGHT FACE " ON UNIT  53 AT TIME STEP 74, STRESS PERIOD   2
 UBDSV1 SAVING "FLOW FRONT FACE " ON UNIT  53 AT TIME STEP 74, STRESS PERIOD   2
1
              HEAD IN LAYER   1 AT END OF TIME STEP  74 IN STRESS PERIOD    2
  ---------------------------------------------------------------------------

            1           2           3           4           5           6           7           8           9          10
           11          12          13          14          15          16          17          18          19          20
 ........................................................................................................................
   1    9.990       9.507       9.019       8.528       8.032       7.532       7.028       6.519       6.006       5.488    
        4.965       4.437       3.903       3.365       2.821       2.271       1.715       1.154      0.5859      1.1554E-02
   2    9.990       9.507       9.019       8.528       8.032       7.532       7.028       6.519       6.006       5.488    
        4.965       4.437       3.903       3.365       2.821       2.271       1.715       1.154      0.5859      1.1554E-02
   3    9.990       9.507       9.019       8.528       8.032       7.532       7.028       6.519       6.006       5.488    
        4.965       4.437       3.903       3.365       2.821       2.271       1.715       1.154      0.5859      1.1554E-02
   4    9.990       9.507       9.019       8.528       8.032       7.532       7.028       6.519       6.006       5.488    
        4.965       4.437       3.903       3.365       2.821       2.271       1.715       1.154      0.5859      1.1554E-02
   5    9.990       9.507       9.019       8.528       8.032       7.532       7.028       6.519       6.006       5.488    
        4.965       4.437       3.903       3.365       2.821       2.271       1.715       1.154      0.5859      1.1554E-02
   6    9.990       9.507       9.019       8.528       8.032       7.532       7.028       6.519       6.006       5.488    
        4.965       4.437       3.903       3.365       2.821       2.271       1.715       1.154      0.5859      1.1554E-02
   7    9.990       9.507       9.019       8.528       8.032       7.532       7.028       6.519       6.006       5.488    
        4.965       4.437       3.903       3.365       2.821       2.271       1.715       1.154      0.5859      1.1554E-02
   8    9.990       9.507       9.019       8.528       8.032       7.532       7.028       6.519       6.006       5.488    
        4.965       4.437       3.903       3.365       2.821       2.271       1.715       1.154      0.5859      1.1554E-02
   9    9.990       9.507       9.019       8.528       8.032       7.532       7.028       6.519       6.006       5.488    
        4.965       4.437       3.903       3.365       2.821       2.271       1.715       1.154      0.5859      1.1554E-02
  10    9.990       9.507       9.019       8.528       8.032       7.532       7.028       6.519       6.006       5.488    
        4.965       4.437       3.903       3.365       2.821       2.271       1.715       1.154      0.5859      1.1554E-02

 HEAD WILL BE SAVED ON UNIT   51 AT END OF TIME STEP  74, STRESS PERIOD    2

 DRAWDOWN WILL BE SAVED ON UNIT   52 AT END OF TIME STEP  74, STRESS PERIOD    2
1
  VOLUMETRIC BUDGET FOR ENTIRE MODEL AT END OF TIME STEP 74 IN STRESS PERIOD   2
  ------------------------------------------------------------------------------

     CUMULATIVE VOLUMES      L**3       RATES FOR THIS TIME STEP      L**3/T
     ------------------                 ------------------------

           IN:                                      IN:
           ---                                      ---
             STORAGE =           0.1782               STORAGE =       2.4033E-03
       CONSTANT HEAD =           0.0000         CONSTANT HEAD =           0.0000
               WELLS =           0.0000                 WELLS =           0.0000
     HEAD DEP BOUNDS =       43327.6445       HEAD DEP BOUNDS =         577.7015

            TOTAL IN =       43327.8242              TOTAL IN =         577.7039

          OUT:                                     OUT:
          ----                                     ----
             STORAGE =           0.1343               STORAGE =       1.8311E-03
       CONSTANT HEAD =           0.0000         CONSTANT HEAD =           0.0000
               WELLS =           0.0000                 WELLS =           0.0000
     HEAD DEP BOUNDS =       43328.9297       HEAD DEP BOUNDS =         577.7195

           TOTAL OUT =       43329.0625             TOTAL OUT =         577.7213

            IN - OUT =          -1.2383              IN - OUT =      -1.7456E-02

 PERCENT DISCREPANCY =           0.00     PERCENT DISCREPANCY =           0.00






          TIME SUMMARY AT END OF TIME STEP  74 IN STRESS PERIOD    2
                    SECONDS     MINUTES      HOURS       DAYS        YEARS
                    -----------------------------------------------------------
   TIME STEP LENGTH  86400.      1440.0      24.000      1.0000     2.73785E-03
 STRESS PERIOD TIME 6.39360E+06 1.06560E+05  1776.0      74.000     0.20260    
         TOTAL TIME 6.48000E+06 1.08000E+05  1800.0      75.000     0.20534    
1
 
 SOLVING FOR HEAD 

 OUTPUT CONTROL FOR STRESS PERIOD    2   TIME STEP  75
    SAVE HEAD FOR ALL LAYERS
    SAVE DRAWDOWN FOR ALL LAYERS
    SAVE BUDGET
    PRINT HEAD FOR ALL LAYERS
    PRINT BUDGET
 UBDSV1 SAVING "         STORAGE" ON UNIT  53 AT TIME STEP 75, STRESS PERIOD   2
 UBDSV2 SAVING "   CONSTANT HEAD" ON UNIT  53 AT TIME STEP 75, STRESS PERIOD   2
 UBDSV1 SAVING "FLOW RIGHT FACE " ON UNIT  53 AT TIME STEP 75, STRESS PERIOD   2
 UBDSV1 SAVING "FLOW FRONT FACE " ON UNIT  53 AT TIME STEP 75, STRESS PERIOD   2
1
              HEAD IN LAYER   1 AT END OF TIME STEP  75 IN STRESS PERIOD    2
  ---------------------------------------------------------------------------

            1           2           3           4           5           6           7           8           9          10
           11          12          13          14          15          16          17          18          19          20
 ........................................................................................................................
   1    9.990       9.507       9.019       8.528       8.032       7.532       7.028       6.519       6.006       5.488    
        4.965       4.437       3.903       3.365       2.821       2.271       1.715       1.154      0.5859      1.1554E-02
   2    9.990       9.507       9.019       8.528       8.032       7.532       7.028       6.519       6.006       5.488    
        4.965       4.437       3.903       3.365       2.821       2.271       1.715       1.154      0.5859      1.1554E-02
   3    9.990       9.507       9.019       8.528       8.032       7.532       7.028       6.519       6.006       5.488    
        4.965       4.437       3.903       3.365       2.821       2.271       1.715       1.154      0.5859      1.1554E-02
   4    9.990       9.507       9.019       8.528       8.032       7.532       7.028       6.519       6.006       5.488    
        4.965       4.437       3.903       3.365       2.821       2.271       1.715       1.154      0.5859      1.1554E-02
   5    9.990       9.507       9.019       8.528       8.032       7.532       7.028       6.519       6.006       5.488    
        4.965       4.437       3.903       3.365       2.821       2.271       1.715       1.154      0.5859      1.1554E-02
   6    9.990       9.507       9.019       8.528       8.032       7.532       7.028       6.519       6.006       5.488    
        4.965       4.437       3.903       3.365       2.821       2.271       1.715       1.154      0.5859      1.1554E-02
   7    9.990       9.507       9.019       8.528       8.032       7.532       7.028       6.519       6.006       5.488    
        4.965       4.437       3.903       3.365       2.821       2.271       1.715       1.154      0.5859      1.1554E-02
   8    9.990       9.507       9.019       8.528       8.032       7.532       7.028       6.519       6.006       5.488    
        4.965       4.437       3.903       3.365       2.821       2.271       1.715       1.154      0.5859      1.1554E-02
   9    9.990       9.507       9.019       8.528       8.032       7.532       7.028       6.519       6.006       5.488    
        4.965       4.437       3.903       3.365       2.821       2.271       1.715       1.154      0.5859      1.1554E-02
  10    9.990       9.507       9.019       8.528       8.032       7.532       7.028       6.519       6.006       5.488    
        4.965       4.437       3.903       3.365       2.821       2.271       1.715       1.154      0.5859      1.1554E-02

 HEAD WILL BE SAVED ON UNIT   51 AT END OF TIME STEP  75, STRESS PERIOD    2

 DRAWDOWN WILL BE SAVED ON UNIT   52 AT END OF TIME STEP  75, STRESS PERIOD    2
1
  VOLUMETRIC BUDGET FOR ENTIRE MODEL AT END OF TIME STEP 75 IN STRESS PERIOD   2
  ------------------------------------------------------------------------------

     CUMULATIVE VOLUMES      L**3       RATES FOR THIS TIME STEP      L**3/T
     ------------------                 ------------------------

           IN:                                      IN:
           ---                                      ---
             STORAGE =           0.1806               STORAGE =       2.4033E-03
       CONSTANT HEAD =           0.0000         CONSTANT HEAD =           0.0000
               WELLS =           0.0000                 WELLS =           0.0000
     HEAD DEP BOUNDS =       43905.3477       HEAD DEP BOUNDS =         577.7015

            TOTAL IN =       43905.5273              TOTAL IN =         577.7039

          OUT:                                     OUT:
          ----                                     ----
             STORAGE =           0.1361               STORAGE =       1.8311E-03
       CONSTANT HEAD =           0.0000         CONSTANT HEAD =           0.0000
               WELLS =           0.0000                 WELLS =           0.0000
     HEAD DEP BOUNDS =       43906.6484       HEAD DEP BOUNDS =         577.7195

           TOTAL OUT =       43906.7852             TOTAL OUT =         577.7213

            IN - OUT =          -1.2578              IN - OUT =      -1.7456E-02

 PERCENT DISCREPANCY =           0.00     PERCENT DISCREPANCY =           0.00






          TIME SUMMARY AT END OF TIME STEP  75 IN STRESS PERIOD    2
                    SECONDS     MINUTES      HOURS       DAYS        YEARS
                    -----------------------------------------------------------
   TIME STEP LENGTH  86400.      1440.0      24.000      1.0000     2.73785E-03
 STRESS PERIOD TIME 6.48000E+06 1.08000E+05  1800.0      75.000     0.20534    
         TOTAL TIME 6.56640E+06 1.09440E+05  1824.0      76.000     0.20808    
1
 
 SOLVING FOR HEAD 

 OUTPUT CONTROL FOR STRESS PERIOD    2   TIME STEP  76
    SAVE HEAD FOR ALL LAYERS
    SAVE DRAWDOWN FOR ALL LAYERS
    SAVE BUDGET
    PRINT HEAD FOR ALL LAYERS
    PRINT BUDGET
 UBDSV1 SAVING "         STORAGE" ON UNIT  53 AT TIME STEP 76, STRESS PERIOD   2
 UBDSV2 SAVING "   CONSTANT HEAD" ON UNIT  53 AT TIME STEP 76, STRESS PERIOD   2
 UBDSV1 SAVING "FLOW RIGHT FACE " ON UNIT  53 AT TIME STEP 76, STRESS PERIOD   2
 UBDSV1 SAVING "FLOW FRONT FACE " ON UNIT  53 AT TIME STEP 76, STRESS PERIOD   2
1
              HEAD IN LAYER   1 AT END OF TIME STEP  76 IN STRESS PERIOD    2
  ---------------------------------------------------------------------------

            1           2           3           4           5           6           7           8           9          10
           11          12          13          14          15          16          17          18          19          20
 ........................................................................................................................
   1    9.990       9.507       9.019       8.528       8.032       7.532       7.028       6.519       6.006       5.488    
        4.965       4.437       3.903       3.365       2.821       2.271       1.715       1.154      0.5859      1.1554E-02
   2    9.990       9.507       9.019       8.528       8.032       7.532       7.028       6.519       6.006       5.488    
        4.965       4.437       3.903       3.365       2.821       2.271       1.715       1.154      0.5859      1.1554E-02
   3    9.990       9.507       9.019       8.528       8.032       7.532       7.028       6.519       6.006       5.488    
        4.965       4.437       3.903       3.365       2.821       2.271       1.715       1.154      0.5859      1.1554E-02
   4    9.990       9.507       9.019       8.528       8.032       7.532       7.028       6.519       6.006       5.488    
        4.965       4.437       3.903       3.365       2.821       2.271       1.715       1.154      0.5859      1.1554E-02
   5    9.990       9.507       9.019       8.528       8.032       7.532       7.028       6.519       6.006       5.488    
        4.965       4.437       3.903       3.365       2.821       2.271       1.715       1.154      0.5859      1.1554E-02
   6    9.990       9.507       9.019       8.528       8.032       7.532       7.028       6.519       6.006       5.488    
        4.965       4.437       3.903       3.365       2.821       2.271       1.715       1.154      0.5859      1.1554E-02
   7    9.990       9.507       9.019       8.528       8.032       7.532       7.028       6.519       6.006       5.488    
        4.965       4.437       3.903       3.365       2.821       2.271       1.715       1.154      0.5859      1.1554E-02
   8    9.990       9.507       9.019       8.528       8.032       7.532       7.028       6.519       6.006       5.488    
        4.965       4.437       3.903       3.365       2.821       2.271       1.715       1.154      0.5859      1.1554E-02
   9    9.990       9.507       9.019       8.528       8.032       7.532       7.028       6.519       6.006       5.488    
        4.965       4.437       3.903       3.365       2.821       2.271       1.715       1.154      0.5859      1.1554E-02
  10    9.990       9.507       9.019       8.528       8.032       7.532       7.028       6.519       6.006       5.488    
        4.965       4.437       3.903       3.365       2.821       2.271       1.715       1.154      0.5859      1.1554E-02

 HEAD WILL BE SAVED ON UNIT   51 AT END OF TIME STEP  76, STRESS PERIOD    2

 DRAWDOWN WILL BE SAVED ON UNIT   52 AT END OF TIME STEP  76, STRESS PERIOD    2
1
  VOLUMETRIC BUDGET FOR ENTIRE MODEL AT END OF TIME STEP 76 IN STRESS PERIOD   2
  ------------------------------------------------------------------------------

     CUMULATIVE VOLUMES      L**3       RATES FOR THIS TIME STEP      L**3/T
     ------------------                 ------------------------

           IN:                                      IN:
           ---                                      ---
             STORAGE =           0.1830               STORAGE =       2.4033E-03
       CONSTANT HEAD =           0.0000         CONSTANT HEAD =           0.0000
               WELLS =           0.0000                 WELLS =           0.0000
     HEAD DEP BOUNDS =       44483.0508       HEAD DEP BOUNDS =         577.7015

            TOTAL IN =       44483.2344              TOTAL IN =         577.7039

          OUT:                                     OUT:
          ----                                     ----
             STORAGE =           0.1379               STORAGE =       1.8311E-03
       CONSTANT HEAD =           0.0000         CONSTANT HEAD =           0.0000
               WELLS =           0.0000                 WELLS =           0.0000
     HEAD DEP BOUNDS =       44484.3672       HEAD DEP BOUNDS =         577.7195

           TOTAL OUT =       44484.5039             TOTAL OUT =         577.7213

            IN - OUT =          -1.2695              IN - OUT =      -1.7456E-02

 PERCENT DISCREPANCY =           0.00     PERCENT DISCREPANCY =           0.00






          TIME SUMMARY AT END OF TIME STEP  76 IN STRESS PERIOD    2
                    SECONDS     MINUTES      HOURS       DAYS        YEARS
                    -----------------------------------------------------------
   TIME STEP LENGTH  86400.      1440.0      24.000      1.0000     2.73785E-03
 STRESS PERIOD TIME 6.56640E+06 1.09440E+05  1824.0      76.000     0.20808    
         TOTAL TIME 6.65280E+06 1.10880E+05  1848.0      77.000     0.21081    
1
 
 SOLVING FOR HEAD 

 OUTPUT CONTROL FOR STRESS PERIOD    2   TIME STEP  77
    SAVE HEAD FOR ALL LAYERS
    SAVE DRAWDOWN FOR ALL LAYERS
    SAVE BUDGET
    PRINT HEAD FOR ALL LAYERS
    PRINT BUDGET
 UBDSV1 SAVING "         STORAGE" ON UNIT  53 AT TIME STEP 77, STRESS PERIOD   2
 UBDSV2 SAVING "   CONSTANT HEAD" ON UNIT  53 AT TIME STEP 77, STRESS PERIOD   2
 UBDSV1 SAVING "FLOW RIGHT FACE " ON UNIT  53 AT TIME STEP 77, STRESS PERIOD   2
 UBDSV1 SAVING "FLOW FRONT FACE " ON UNIT  53 AT TIME STEP 77, STRESS PERIOD   2
1
              HEAD IN LAYER   1 AT END OF TIME STEP  77 IN STRESS PERIOD    2
  ---------------------------------------------------------------------------

            1           2           3           4           5           6           7           8           9          10
           11          12          13          14          15          16          17          18          19          20
 ........................................................................................................................
   1    9.990       9.507       9.019       8.528       8.032       7.532       7.028       6.519       6.006       5.488    
        4.965       4.437       3.903       3.365       2.821       2.271       1.715       1.154      0.5859      1.1554E-02
   2    9.990       9.507       9.019       8.528       8.032       7.532       7.028       6.519       6.006       5.488    
        4.965       4.437       3.903       3.365       2.821       2.271       1.715       1.154      0.5859      1.1554E-02
   3    9.990       9.507       9.019       8.528       8.032       7.532       7.028       6.519       6.006       5.488    
        4.965       4.437       3.903       3.365       2.821       2.271       1.715       1.154      0.5859      1.1554E-02
   4    9.990       9.507       9.019       8.528       8.032       7.532       7.028       6.519       6.006       5.488    
        4.965       4.437       3.903       3.365       2.821       2.271       1.715       1.154      0.5859      1.1554E-02
   5    9.990       9.507       9.019       8.528       8.032       7.532       7.028       6.519       6.006       5.488    
        4.965       4.437       3.903       3.365       2.821       2.271       1.715       1.154      0.5859      1.1554E-02
   6    9.990       9.507       9.019       8.528       8.032       7.532       7.028       6.519       6.006       5.488    
        4.965       4.437       3.903       3.365       2.821       2.271       1.715       1.154      0.5859      1.1554E-02
   7    9.990       9.507       9.019       8.528       8.032       7.532       7.028       6.519       6.006       5.488    
        4.965       4.437       3.903       3.365       2.821       2.271       1.715       1.154      0.5859      1.1554E-02
   8    9.990       9.507       9.019       8.528       8.032       7.532       7.028       6.519       6.006       5.488    
        4.965       4.437       3.903       3.365       2.821       2.271       1.715       1.154      0.5859      1.1554E-02
   9    9.990       9.507       9.019       8.528       8.032       7.532       7.028       6.519       6.006       5.488    
        4.965       4.437       3.903       3.365       2.821       2.271       1.715       1.154      0.5859      1.1554E-02
  10    9.990       9.507       9.019       8.528       8.032       7.532       7.028       6.519       6.006       5.488    
        4.965       4.437       3.903       3.365       2.821       2.271       1.715       1.154      0.5859      1.1554E-02

 HEAD WILL BE SAVED ON UNIT   51 AT END OF TIME STEP  77, STRESS PERIOD    2

 DRAWDOWN WILL BE SAVED ON UNIT   52 AT END OF TIME STEP  77, STRESS PERIOD    2
1
  VOLUMETRIC BUDGET FOR ENTIRE MODEL AT END OF TIME STEP 77 IN STRESS PERIOD   2
  ------------------------------------------------------------------------------

     CUMULATIVE VOLUMES      L**3       RATES FOR THIS TIME STEP      L**3/T
     ------------------                 ------------------------

           IN:                                      IN:
           ---                                      ---
             STORAGE =           0.1854               STORAGE =       2.4033E-03
       CONSTANT HEAD =           0.0000         CONSTANT HEAD =           0.0000
               WELLS =           0.0000                 WELLS =           0.0000
     HEAD DEP BOUNDS =       45060.7539       HEAD DEP BOUNDS =         577.7015

            TOTAL IN =       45060.9375              TOTAL IN =         577.7039

          OUT:                                     OUT:
          ----                                     ----
             STORAGE =           0.1398               STORAGE =       1.8311E-03
       CONSTANT HEAD =           0.0000         CONSTANT HEAD =           0.0000
               WELLS =           0.0000                 WELLS =           0.0000
     HEAD DEP BOUNDS =       45062.0859       HEAD DEP BOUNDS =         577.7195

           TOTAL OUT =       45062.2266             TOTAL OUT =         577.7213

            IN - OUT =          -1.2891              IN - OUT =      -1.7456E-02

 PERCENT DISCREPANCY =           0.00     PERCENT DISCREPANCY =           0.00






          TIME SUMMARY AT END OF TIME STEP  77 IN STRESS PERIOD    2
                    SECONDS     MINUTES      HOURS       DAYS        YEARS
                    -----------------------------------------------------------
   TIME STEP LENGTH  86400.      1440.0      24.000      1.0000     2.73785E-03
 STRESS PERIOD TIME 6.65280E+06 1.10880E+05  1848.0      77.000     0.21081    
         TOTAL TIME 6.73920E+06 1.12320E+05  1872.0      78.000     0.21355    
1
 
 SOLVING FOR HEAD 

 OUTPUT CONTROL FOR STRESS PERIOD    2   TIME STEP  78
    SAVE HEAD FOR ALL LAYERS
    SAVE DRAWDOWN FOR ALL LAYERS
    SAVE BUDGET
    PRINT HEAD FOR ALL LAYERS
    PRINT BUDGET
 UBDSV1 SAVING "         STORAGE" ON UNIT  53 AT TIME STEP 78, STRESS PERIOD   2
 UBDSV2 SAVING "   CONSTANT HEAD" ON UNIT  53 AT TIME STEP 78, STRESS PERIOD   2
 UBDSV1 SAVING "FLOW RIGHT FACE " ON UNIT  53 AT TIME STEP 78, STRESS PERIOD   2
 UBDSV1 SAVING "FLOW FRONT FACE " ON UNIT  53 AT TIME STEP 78, STRESS PERIOD   2
1
              HEAD IN LAYER   1 AT END OF TIME STEP  78 IN STRESS PERIOD    2
  ---------------------------------------------------------------------------

            1           2           3           4           5           6           7           8           9          10
           11          12          13          14          15          16          17          18          19          20
 ........................................................................................................................
   1    9.990       9.507       9.019       8.528       8.032       7.532       7.028       6.519       6.006       5.488    
        4.965       4.437       3.903       3.365       2.821       2.271       1.715       1.154      0.5859      1.1554E-02
   2    9.990       9.507       9.019       8.528       8.032       7.532       7.028       6.519       6.006       5.488    
        4.965       4.437       3.903       3.365       2.821       2.271       1.715       1.154      0.5859      1.1554E-02
   3    9.990       9.507       9.019       8.528       8.032       7.532       7.028       6.519       6.006       5.488    
        4.965       4.437       3.903       3.365       2.821       2.271       1.715       1.154      0.5859      1.1554E-02
   4    9.990       9.507       9.019       8.528       8.032       7.532       7.028       6.519       6.006       5.488    
        4.965       4.437       3.903       3.365       2.821       2.271       1.715       1.154      0.5859      1.1554E-02
   5    9.990       9.507       9.019       8.528       8.032       7.532       7.028       6.519       6.006       5.488    
        4.965       4.437       3.903       3.365       2.821       2.271       1.715       1.154      0.5859      1.1554E-02
   6    9.990       9.507       9.019       8.528       8.032       7.532       7.028       6.519       6.006       5.488    
        4.965       4.437       3.903       3.365       2.821       2.271       1.715       1.154      0.5859      1.1554E-02
   7    9.990       9.507       9.019       8.528       8.032       7.532       7.028       6.519       6.006       5.488    
        4.965       4.437       3.903       3.365       2.821       2.271       1.715       1.154      0.5859      1.1554E-02
   8    9.990       9.507       9.019       8.528       8.032       7.532       7.028       6.519       6.006       5.488    
        4.965       4.437       3.903       3.365       2.821       2.271       1.715       1.154      0.5859      1.1554E-02
   9    9.990       9.507       9.019       8.528       8.032       7.532       7.028       6.519       6.006       5.488    
        4.965       4.437       3.903       3.365       2.821       2.271       1.715       1.154      0.5859      1.1554E-02
  10    9.990       9.507       9.019       8.528       8.032       7.532       7.028       6.519       6.006       5.488    
        4.965       4.437       3.903       3.365       2.821       2.271       1.715       1.154      0.5859      1.1554E-02

 HEAD WILL BE SAVED ON UNIT   51 AT END OF TIME STEP  78, STRESS PERIOD    2

 DRAWDOWN WILL BE SAVED ON UNIT   52 AT END OF TIME STEP  78, STRESS PERIOD    2
1
  VOLUMETRIC BUDGET FOR ENTIRE MODEL AT END OF TIME STEP 78 IN STRESS PERIOD   2
  ------------------------------------------------------------------------------

     CUMULATIVE VOLUMES      L**3       RATES FOR THIS TIME STEP      L**3/T
     ------------------                 ------------------------

           IN:                                      IN:
           ---                                      ---
             STORAGE =           0.1878               STORAGE =       2.4033E-03
       CONSTANT HEAD =           0.0000         CONSTANT HEAD =           0.0000
               WELLS =           0.0000                 WELLS =           0.0000
     HEAD DEP BOUNDS =       45638.4570       HEAD DEP BOUNDS =         577.7015

            TOTAL IN =       45638.6445              TOTAL IN =         577.7039

          OUT:                                     OUT:
          ----                                     ----
             STORAGE =           0.1416               STORAGE =       1.8311E-03
       CONSTANT HEAD =           0.0000         CONSTANT HEAD =           0.0000
               WELLS =           0.0000                 WELLS =           0.0000
     HEAD DEP BOUNDS =       45639.8047       HEAD DEP BOUNDS =         577.7195

           TOTAL OUT =       45639.9453             TOTAL OUT =         577.7213

            IN - OUT =          -1.3008              IN - OUT =      -1.7456E-02

 PERCENT DISCREPANCY =           0.00     PERCENT DISCREPANCY =           0.00






          TIME SUMMARY AT END OF TIME STEP  78 IN STRESS PERIOD    2
                    SECONDS     MINUTES      HOURS       DAYS        YEARS
                    -----------------------------------------------------------
   TIME STEP LENGTH  86400.      1440.0      24.000      1.0000     2.73785E-03
 STRESS PERIOD TIME 6.73920E+06 1.12320E+05  1872.0      78.000     0.21355    
         TOTAL TIME 6.82560E+06 1.13760E+05  1896.0      79.000     0.21629    
1
 
 SOLVING FOR HEAD 

 OUTPUT CONTROL FOR STRESS PERIOD    2   TIME STEP  79
    SAVE HEAD FOR ALL LAYERS
    SAVE DRAWDOWN FOR ALL LAYERS
    SAVE BUDGET
    PRINT HEAD FOR ALL LAYERS
    PRINT BUDGET
 UBDSV1 SAVING "         STORAGE" ON UNIT  53 AT TIME STEP 79, STRESS PERIOD   2
 UBDSV2 SAVING "   CONSTANT HEAD" ON UNIT  53 AT TIME STEP 79, STRESS PERIOD   2
 UBDSV1 SAVING "FLOW RIGHT FACE " ON UNIT  53 AT TIME STEP 79, STRESS PERIOD   2
 UBDSV1 SAVING "FLOW FRONT FACE " ON UNIT  53 AT TIME STEP 79, STRESS PERIOD   2
1
              HEAD IN LAYER   1 AT END OF TIME STEP  79 IN STRESS PERIOD    2
  ---------------------------------------------------------------------------

            1           2           3           4           5           6           7           8           9          10
           11          12          13          14          15          16          17          18          19          20
 ........................................................................................................................
   1    9.990       9.507       9.019       8.528       8.032       7.532       7.028       6.519       6.006       5.488    
        4.965       4.437       3.903       3.365       2.821       2.271       1.715       1.154      0.5859      1.1554E-02
   2    9.990       9.507       9.019       8.528       8.032       7.532       7.028       6.519       6.006       5.488    
        4.965       4.437       3.903       3.365       2.821       2.271       1.715       1.154      0.5859      1.1554E-02
   3    9.990       9.507       9.019       8.528       8.032       7.532       7.028       6.519       6.006       5.488    
        4.965       4.437       3.903       3.365       2.821       2.271       1.715       1.154      0.5859      1.1554E-02
   4    9.990       9.507       9.019       8.528       8.032       7.532       7.028       6.519       6.006       5.488    
        4.965       4.437       3.903       3.365       2.821       2.271       1.715       1.154      0.5859      1.1554E-02
   5    9.990       9.507       9.019       8.528       8.032       7.532       7.028       6.519       6.006       5.488    
        4.965       4.437       3.903       3.365       2.821       2.271       1.715       1.154      0.5859      1.1554E-02
   6    9.990       9.507       9.019       8.528       8.032       7.532       7.028       6.519       6.006       5.488    
        4.965       4.437       3.903       3.365       2.821       2.271       1.715       1.154      0.5859      1.1554E-02
   7    9.990       9.507       9.019       8.528       8.032       7.532       7.028       6.519       6.006       5.488    
        4.965       4.437       3.903       3.365       2.821       2.271       1.715       1.154      0.5859      1.1554E-02
   8    9.990       9.507       9.019       8.528       8.032       7.532       7.028       6.519       6.006       5.488    
        4.965       4.437       3.903       3.365       2.821       2.271       1.715       1.154      0.5859      1.1554E-02
   9    9.990       9.507       9.019       8.528       8.032       7.532       7.028       6.519       6.006       5.488    
        4.965       4.437       3.903       3.365       2.821       2.271       1.715       1.154      0.5859      1.1554E-02
  10    9.990       9.507       9.019       8.528       8.032       7.532       7.028       6.519       6.006       5.488    
        4.965       4.437       3.903       3.365       2.821       2.271       1.715       1.154      0.5859      1.1554E-02

 HEAD WILL BE SAVED ON UNIT   51 AT END OF TIME STEP  79, STRESS PERIOD    2

 DRAWDOWN WILL BE SAVED ON UNIT   52 AT END OF TIME STEP  79, STRESS PERIOD    2
1
  VOLUMETRIC BUDGET FOR ENTIRE MODEL AT END OF TIME STEP 79 IN STRESS PERIOD   2
  ------------------------------------------------------------------------------

     CUMULATIVE VOLUMES      L**3       RATES FOR THIS TIME STEP      L**3/T
     ------------------                 ------------------------

           IN:                                      IN:
           ---                                      ---
             STORAGE =           0.1902               STORAGE =       2.4033E-03
       CONSTANT HEAD =           0.0000         CONSTANT HEAD =           0.0000
               WELLS =           0.0000                 WELLS =           0.0000
     HEAD DEP BOUNDS =       46216.1602       HEAD DEP BOUNDS =         577.7015

            TOTAL IN =       46216.3516              TOTAL IN =         577.7039

          OUT:                                     OUT:
          ----                                     ----
             STORAGE =           0.1434               STORAGE =       1.8311E-03
       CONSTANT HEAD =           0.0000         CONSTANT HEAD =           0.0000
               WELLS =           0.0000                 WELLS =           0.0000
     HEAD DEP BOUNDS =       46217.5234       HEAD DEP BOUNDS =         577.7195

           TOTAL OUT =       46217.6680             TOTAL OUT =         577.7213

            IN - OUT =          -1.3164              IN - OUT =      -1.7456E-02

 PERCENT DISCREPANCY =           0.00     PERCENT DISCREPANCY =           0.00






          TIME SUMMARY AT END OF TIME STEP  79 IN STRESS PERIOD    2
                    SECONDS     MINUTES      HOURS       DAYS        YEARS
                    -----------------------------------------------------------
   TIME STEP LENGTH  86400.      1440.0      24.000      1.0000     2.73785E-03
 STRESS PERIOD TIME 6.82560E+06 1.13760E+05  1896.0      79.000     0.21629    
         TOTAL TIME 6.91200E+06 1.15200E+05  1920.0      80.000     0.21903    
1
 
 SOLVING FOR HEAD 

 OUTPUT CONTROL FOR STRESS PERIOD    2   TIME STEP  80
    SAVE HEAD FOR ALL LAYERS
    SAVE DRAWDOWN FOR ALL LAYERS
    SAVE BUDGET
    PRINT HEAD FOR ALL LAYERS
    PRINT BUDGET
 UBDSV1 SAVING "         STORAGE" ON UNIT  53 AT TIME STEP 80, STRESS PERIOD   2
 UBDSV2 SAVING "   CONSTANT HEAD" ON UNIT  53 AT TIME STEP 80, STRESS PERIOD   2
 UBDSV1 SAVING "FLOW RIGHT FACE " ON UNIT  53 AT TIME STEP 80, STRESS PERIOD   2
 UBDSV1 SAVING "FLOW FRONT FACE " ON UNIT  53 AT TIME STEP 80, STRESS PERIOD   2
1
              HEAD IN LAYER   1 AT END OF TIME STEP  80 IN STRESS PERIOD    2
  ---------------------------------------------------------------------------

            1           2           3           4           5           6           7           8           9          10
           11          12          13          14          15          16          17          18          19          20
 ........................................................................................................................
   1    9.990       9.507       9.019       8.528       8.032       7.532       7.028       6.519       6.006       5.488    
        4.965       4.437       3.903       3.365       2.821       2.271       1.715       1.154      0.5859      1.1554E-02
   2    9.990       9.507       9.019       8.528       8.032       7.532       7.028       6.519       6.006       5.488    
        4.965       4.437       3.903       3.365       2.821       2.271       1.715       1.154      0.5859      1.1554E-02
   3    9.990       9.507       9.019       8.528       8.032       7.532       7.028       6.519       6.006       5.488    
        4.965       4.437       3.903       3.365       2.821       2.271       1.715       1.154      0.5859      1.1554E-02
   4    9.990       9.507       9.019       8.528       8.032       7.532       7.028       6.519       6.006       5.488    
        4.965       4.437       3.903       3.365       2.821       2.271       1.715       1.154      0.5859      1.1554E-02
   5    9.990       9.507       9.019       8.528       8.032       7.532       7.028       6.519       6.006       5.488    
        4.965       4.437       3.903       3.365       2.821       2.271       1.715       1.154      0.5859      1.1554E-02
   6    9.990       9.507       9.019       8.528       8.032       7.532       7.028       6.519       6.006       5.488    
        4.965       4.437       3.903       3.365       2.821       2.271       1.715       1.154      0.5859      1.1554E-02
   7    9.990       9.507       9.019       8.528       8.032       7.532       7.028       6.519       6.006       5.488    
        4.965       4.437       3.903       3.365       2.821       2.271       1.715       1.154      0.5859      1.1554E-02
   8    9.990       9.507       9.019       8.528       8.032       7.532       7.028       6.519       6.006       5.488    
        4.965       4.437       3.903       3.365       2.821       2.271       1.715       1.154      0.5859      1.1554E-02
   9    9.990       9.507       9.019       8.528       8.032       7.532       7.028       6.519       6.006       5.488    
        4.965       4.437       3.903       3.365       2.821       2.271       1.715       1.154      0.5859      1.1554E-02
  10    9.990       9.507       9.019       8.528       8.032       7.532       7.028       6.519       6.006       5.488    
        4.965       4.437       3.903       3.365       2.821       2.271       1.715       1.154      0.5859      1.1554E-02

 HEAD WILL BE SAVED ON UNIT   51 AT END OF TIME STEP  80, STRESS PERIOD    2

 DRAWDOWN WILL BE SAVED ON UNIT   52 AT END OF TIME STEP  80, STRESS PERIOD    2
1
  VOLUMETRIC BUDGET FOR ENTIRE MODEL AT END OF TIME STEP 80 IN STRESS PERIOD   2
  ------------------------------------------------------------------------------

     CUMULATIVE VOLUMES      L**3       RATES FOR THIS TIME STEP      L**3/T
     ------------------                 ------------------------

           IN:                                      IN:
           ---                                      ---
             STORAGE =           0.1926               STORAGE =       2.4033E-03
       CONSTANT HEAD =           0.0000         CONSTANT HEAD =           0.0000
               WELLS =           0.0000                 WELLS =           0.0000
     HEAD DEP BOUNDS =       46793.8633       HEAD DEP BOUNDS =         577.7015

            TOTAL IN =       46794.0547              TOTAL IN =         577.7039

          OUT:                                     OUT:
          ----                                     ----
             STORAGE =           0.1453               STORAGE =       1.8311E-03
       CONSTANT HEAD =           0.0000         CONSTANT HEAD =           0.0000
               WELLS =           0.0000                 WELLS =           0.0000
     HEAD DEP BOUNDS =       46795.2422       HEAD DEP BOUNDS =         577.7195

           TOTAL OUT =       46795.3867             TOTAL OUT =         577.7213

            IN - OUT =          -1.3320              IN - OUT =      -1.7456E-02

 PERCENT DISCREPANCY =           0.00     PERCENT DISCREPANCY =           0.00






          TIME SUMMARY AT END OF TIME STEP  80 IN STRESS PERIOD    2
                    SECONDS     MINUTES      HOURS       DAYS        YEARS
                    -----------------------------------------------------------
   TIME STEP LENGTH  86400.      1440.0      24.000      1.0000     2.73785E-03
 STRESS PERIOD TIME 6.91200E+06 1.15200E+05  1920.0      80.000     0.21903    
         TOTAL TIME 6.99840E+06 1.16640E+05  1944.0      81.000     0.22177    
1
 
 SOLVING FOR HEAD 

 OUTPUT CONTROL FOR STRESS PERIOD    2   TIME STEP  81
    SAVE HEAD FOR ALL LAYERS
    SAVE DRAWDOWN FOR ALL LAYERS
    SAVE BUDGET
    PRINT HEAD FOR ALL LAYERS
    PRINT BUDGET
 UBDSV1 SAVING "         STORAGE" ON UNIT  53 AT TIME STEP 81, STRESS PERIOD   2
 UBDSV2 SAVING "   CONSTANT HEAD" ON UNIT  53 AT TIME STEP 81, STRESS PERIOD   2
 UBDSV1 SAVING "FLOW RIGHT FACE " ON UNIT  53 AT TIME STEP 81, STRESS PERIOD   2
 UBDSV1 SAVING "FLOW FRONT FACE " ON UNIT  53 AT TIME STEP 81, STRESS PERIOD   2
1
              HEAD IN LAYER   1 AT END OF TIME STEP  81 IN STRESS PERIOD    2
  ---------------------------------------------------------------------------

            1           2           3           4           5           6           7           8           9          10
           11          12          13          14          15          16          17          18          19          20
 ........................................................................................................................
   1    9.990       9.507       9.019       8.528       8.032       7.532       7.028       6.519       6.006       5.488    
        4.965       4.437       3.903       3.365       2.821       2.271       1.715       1.154      0.5859      1.1554E-02
   2    9.990       9.507       9.019       8.528       8.032       7.532       7.028       6.519       6.006       5.488    
        4.965       4.437       3.903       3.365       2.821       2.271       1.715       1.154      0.5859      1.1554E-02
   3    9.990       9.507       9.019       8.528       8.032       7.532       7.028       6.519       6.006       5.488    
        4.965       4.437       3.903       3.365       2.821       2.271       1.715       1.154      0.5859      1.1554E-02
   4    9.990       9.507       9.019       8.528       8.032       7.532       7.028       6.519       6.006       5.488    
        4.965       4.437       3.903       3.365       2.821       2.271       1.715       1.154      0.5859      1.1554E-02
   5    9.990       9.507       9.019       8.528       8.032       7.532       7.028       6.519       6.006       5.488    
        4.965       4.437       3.903       3.365       2.821       2.271       1.715       1.154      0.5859      1.1554E-02
   6    9.990       9.507       9.019       8.528       8.032       7.532       7.028       6.519       6.006       5.488    
        4.965       4.437       3.903       3.365       2.821       2.271       1.715       1.154      0.5859      1.1554E-02
   7    9.990       9.507       9.019       8.528       8.032       7.532       7.028       6.519       6.006       5.488    
        4.965       4.437       3.903       3.365       2.821       2.271       1.715       1.154      0.5859      1.1554E-02
   8    9.990       9.507       9.019       8.528       8.032       7.532       7.028       6.519       6.006       5.488    
        4.965       4.437       3.903       3.365       2.821       2.271       1.715       1.154      0.5859      1.1554E-02
   9    9.990       9.507       9.019       8.528       8.032       7.532       7.028       6.519       6.006       5.488    
        4.965       4.437       3.903       3.365       2.821       2.271       1.715       1.154      0.5859      1.1554E-02
  10    9.990       9.507       9.019       8.528       8.032       7.532       7.028       6.519       6.006       5.488    
        4.965       4.437       3.903       3.365       2.821       2.271       1.715       1.154      0.5859      1.1554E-02

 HEAD WILL BE SAVED ON UNIT   51 AT END OF TIME STEP  81, STRESS PERIOD    2

 DRAWDOWN WILL BE SAVED ON UNIT   52 AT END OF TIME STEP  81, STRESS PERIOD    2
1
  VOLUMETRIC BUDGET FOR ENTIRE MODEL AT END OF TIME STEP 81 IN STRESS PERIOD   2
  ------------------------------------------------------------------------------

     CUMULATIVE VOLUMES      L**3       RATES FOR THIS TIME STEP      L**3/T
     ------------------                 ------------------------

           IN:                                      IN:
           ---                                      ---
             STORAGE =           0.1950               STORAGE =       2.4033E-03
       CONSTANT HEAD =           0.0000         CONSTANT HEAD =           0.0000
               WELLS =           0.0000                 WELLS =           0.0000
     HEAD DEP BOUNDS =       47371.5664       HEAD DEP BOUNDS =         577.7015

            TOTAL IN =       47371.7617              TOTAL IN =         577.7039

          OUT:                                     OUT:
          ----                                     ----
             STORAGE =           0.1471               STORAGE =       1.8311E-03
       CONSTANT HEAD =           0.0000         CONSTANT HEAD =           0.0000
               WELLS =           0.0000                 WELLS =           0.0000
     HEAD DEP BOUNDS =       47372.9609       HEAD DEP BOUNDS =         577.7195

           TOTAL OUT =       47373.1094             TOTAL OUT =         577.7213

            IN - OUT =          -1.3477              IN - OUT =      -1.7456E-02

 PERCENT DISCREPANCY =           0.00     PERCENT DISCREPANCY =           0.00






          TIME SUMMARY AT END OF TIME STEP  81 IN STRESS PERIOD    2
                    SECONDS     MINUTES      HOURS       DAYS        YEARS
                    -----------------------------------------------------------
   TIME STEP LENGTH  86400.      1440.0      24.000      1.0000     2.73785E-03
 STRESS PERIOD TIME 6.99840E+06 1.16640E+05  1944.0      81.000     0.22177    
         TOTAL TIME 7.08480E+06 1.18080E+05  1968.0      82.000     0.22450    
1
 
 SOLVING FOR HEAD 

 OUTPUT CONTROL FOR STRESS PERIOD    2   TIME STEP  82
    SAVE HEAD FOR ALL LAYERS
    SAVE DRAWDOWN FOR ALL LAYERS
    SAVE BUDGET
    PRINT HEAD FOR ALL LAYERS
    PRINT BUDGET
 UBDSV1 SAVING "         STORAGE" ON UNIT  53 AT TIME STEP 82, STRESS PERIOD   2
 UBDSV2 SAVING "   CONSTANT HEAD" ON UNIT  53 AT TIME STEP 82, STRESS PERIOD   2
 UBDSV1 SAVING "FLOW RIGHT FACE " ON UNIT  53 AT TIME STEP 82, STRESS PERIOD   2
 UBDSV1 SAVING "FLOW FRONT FACE " ON UNIT  53 AT TIME STEP 82, STRESS PERIOD   2
1
              HEAD IN LAYER   1 AT END OF TIME STEP  82 IN STRESS PERIOD    2
  ---------------------------------------------------------------------------

            1           2           3           4           5           6           7           8           9          10
           11          12          13          14          15          16          17          18          19          20
 ........................................................................................................................
   1    9.990       9.507       9.019       8.528       8.032       7.532       7.028       6.519       6.006       5.488    
        4.965       4.437       3.903       3.365       2.821       2.271       1.715       1.154      0.5859      1.1554E-02
   2    9.990       9.507       9.019       8.528       8.032       7.532       7.028       6.519       6.006       5.488    
        4.965       4.437       3.903       3.365       2.821       2.271       1.715       1.154      0.5859      1.1554E-02
   3    9.990       9.507       9.019       8.528       8.032       7.532       7.028       6.519       6.006       5.488    
        4.965       4.437       3.903       3.365       2.821       2.271       1.715       1.154      0.5859      1.1554E-02
   4    9.990       9.507       9.019       8.528       8.032       7.532       7.028       6.519       6.006       5.488    
        4.965       4.437       3.903       3.365       2.821       2.271       1.715       1.154      0.5859      1.1554E-02
   5    9.990       9.507       9.019       8.528       8.032       7.532       7.028       6.519       6.006       5.488    
        4.965       4.437       3.903       3.365       2.821       2.271       1.715       1.154      0.5859      1.1554E-02
   6    9.990       9.507       9.019       8.528       8.032       7.532       7.028       6.519       6.006       5.488    
        4.965       4.437       3.903       3.365       2.821       2.271       1.715       1.154      0.5859      1.1554E-02
   7    9.990       9.507       9.019       8.528       8.032       7.532       7.028       6.519       6.006       5.488    
        4.965       4.437       3.903       3.365       2.821       2.271       1.715       1.154      0.5859      1.1554E-02
   8    9.990       9.507       9.019       8.528       8.032       7.532       7.028       6.519       6.006       5.488    
        4.965       4.437       3.903       3.365       2.821       2.271       1.715       1.154      0.5859      1.1554E-02
   9    9.990       9.507       9.019       8.528       8.032       7.532       7.028       6.519       6.006       5.488    
        4.965       4.437       3.903       3.365       2.821       2.271       1.715       1.154      0.5859      1.1554E-02
  10    9.990       9.507       9.019       8.528       8.032       7.532       7.028       6.519       6.006       5.488    
        4.965       4.437       3.903       3.365       2.821       2.271       1.715       1.154      0.5859      1.1554E-02

 HEAD WILL BE SAVED ON UNIT   51 AT END OF TIME STEP  82, STRESS PERIOD    2

 DRAWDOWN WILL BE SAVED ON UNIT   52 AT END OF TIME STEP  82, STRESS PERIOD    2
1
  VOLUMETRIC BUDGET FOR ENTIRE MODEL AT END OF TIME STEP 82 IN STRESS PERIOD   2
  ------------------------------------------------------------------------------

     CUMULATIVE VOLUMES      L**3       RATES FOR THIS TIME STEP      L**3/T
     ------------------                 ------------------------

           IN:                                      IN:
           ---                                      ---
             STORAGE =           0.1974               STORAGE =       2.4033E-03
       CONSTANT HEAD =           0.0000         CONSTANT HEAD =           0.0000
               WELLS =           0.0000                 WELLS =           0.0000
     HEAD DEP BOUNDS =       47949.2695       HEAD DEP BOUNDS =         577.7015

            TOTAL IN =       47949.4688              TOTAL IN =         577.7039

          OUT:                                     OUT:
          ----                                     ----
             STORAGE =           0.1489               STORAGE =       1.8311E-03
       CONSTANT HEAD =           0.0000         CONSTANT HEAD =           0.0000
               WELLS =           0.0000                 WELLS =           0.0000
     HEAD DEP BOUNDS =       47950.6797       HEAD DEP BOUNDS =         577.7195

           TOTAL OUT =       47950.8281             TOTAL OUT =         577.7213

            IN - OUT =          -1.3594              IN - OUT =      -1.7456E-02

 PERCENT DISCREPANCY =           0.00     PERCENT DISCREPANCY =           0.00






          TIME SUMMARY AT END OF TIME STEP  82 IN STRESS PERIOD    2
                    SECONDS     MINUTES      HOURS       DAYS        YEARS
                    -----------------------------------------------------------
   TIME STEP LENGTH  86400.      1440.0      24.000      1.0000     2.73785E-03
 STRESS PERIOD TIME 7.08480E+06 1.18080E+05  1968.0      82.000     0.22450    
         TOTAL TIME 7.17120E+06 1.19520E+05  1992.0      83.000     0.22724    
1
 
 SOLVING FOR HEAD 

 OUTPUT CONTROL FOR STRESS PERIOD    2   TIME STEP  83
    SAVE HEAD FOR ALL LAYERS
    SAVE DRAWDOWN FOR ALL LAYERS
    SAVE BUDGET
    PRINT HEAD FOR ALL LAYERS
    PRINT BUDGET
 UBDSV1 SAVING "         STORAGE" ON UNIT  53 AT TIME STEP 83, STRESS PERIOD   2
 UBDSV2 SAVING "   CONSTANT HEAD" ON UNIT  53 AT TIME STEP 83, STRESS PERIOD   2
 UBDSV1 SAVING "FLOW RIGHT FACE " ON UNIT  53 AT TIME STEP 83, STRESS PERIOD   2
 UBDSV1 SAVING "FLOW FRONT FACE " ON UNIT  53 AT TIME STEP 83, STRESS PERIOD   2
1
              HEAD IN LAYER   1 AT END OF TIME STEP  83 IN STRESS PERIOD    2
  ---------------------------------------------------------------------------

            1           2           3           4           5           6           7           8           9          10
           11          12          13          14          15          16          17          18          19          20
 ........................................................................................................................
   1    9.990       9.507       9.019       8.528       8.032       7.532       7.028       6.519       6.006       5.488    
        4.965       4.437       3.903       3.365       2.821       2.271       1.715       1.154      0.5859      1.1554E-02
   2    9.990       9.507       9.019       8.528       8.032       7.532       7.028       6.519       6.006       5.488    
        4.965       4.437       3.903       3.365       2.821       2.271       1.715       1.154      0.5859      1.1554E-02
   3    9.990       9.507       9.019       8.528       8.032       7.532       7.028       6.519       6.006       5.488    
        4.965       4.437       3.903       3.365       2.821       2.271       1.715       1.154      0.5859      1.1554E-02
   4    9.990       9.507       9.019       8.528       8.032       7.532       7.028       6.519       6.006       5.488    
        4.965       4.437       3.903       3.365       2.821       2.271       1.715       1.154      0.5859      1.1554E-02
   5    9.990       9.507       9.019       8.528       8.032       7.532       7.028       6.519       6.006       5.488    
        4.965       4.437       3.903       3.365       2.821       2.271       1.715       1.154      0.5859      1.1554E-02
   6    9.990       9.507       9.019       8.528       8.032       7.532       7.028       6.519       6.006       5.488    
        4.965       4.437       3.903       3.365       2.821       2.271       1.715       1.154      0.5859      1.1554E-02
   7    9.990       9.507       9.019       8.528       8.032       7.532       7.028       6.519       6.006       5.488    
        4.965       4.437       3.903       3.365       2.821       2.271       1.715       1.154      0.5859      1.1554E-02
   8    9.990       9.507       9.019       8.528       8.032       7.532       7.028       6.519       6.006       5.488    
        4.965       4.437       3.903       3.365       2.821       2.271       1.715       1.154      0.5859      1.1554E-02
   9    9.990       9.507       9.019       8.528       8.032       7.532       7.028       6.519       6.006       5.488    
        4.965       4.437       3.903       3.365       2.821       2.271       1.715       1.154      0.5859      1.1554E-02
  10    9.990       9.507       9.019       8.528       8.032       7.532       7.028       6.519       6.006       5.488    
        4.965       4.437       3.903       3.365       2.821       2.271       1.715       1.154      0.5859      1.1554E-02

 HEAD WILL BE SAVED ON UNIT   51 AT END OF TIME STEP  83, STRESS PERIOD    2

 DRAWDOWN WILL BE SAVED ON UNIT   52 AT END OF TIME STEP  83, STRESS PERIOD    2
1
  VOLUMETRIC BUDGET FOR ENTIRE MODEL AT END OF TIME STEP 83 IN STRESS PERIOD   2
  ------------------------------------------------------------------------------

     CUMULATIVE VOLUMES      L**3       RATES FOR THIS TIME STEP      L**3/T
     ------------------                 ------------------------

           IN:                                      IN:
           ---                                      ---
             STORAGE =           0.1998               STORAGE =       2.4033E-03
       CONSTANT HEAD =           0.0000         CONSTANT HEAD =           0.0000
               WELLS =           0.0000                 WELLS =           0.0000
     HEAD DEP BOUNDS =       48526.9727       HEAD DEP BOUNDS =         577.7015

            TOTAL IN =       48527.1719              TOTAL IN =         577.7039

          OUT:                                     OUT:
          ----                                     ----
             STORAGE =           0.1508               STORAGE =       1.8311E-03
       CONSTANT HEAD =           0.0000         CONSTANT HEAD =           0.0000
               WELLS =           0.0000                 WELLS =           0.0000
     HEAD DEP BOUNDS =       48528.3984       HEAD DEP BOUNDS =         577.7195

           TOTAL OUT =       48528.5508             TOTAL OUT =         577.7213

            IN - OUT =          -1.3789              IN - OUT =      -1.7456E-02

 PERCENT DISCREPANCY =           0.00     PERCENT DISCREPANCY =           0.00






          TIME SUMMARY AT END OF TIME STEP  83 IN STRESS PERIOD    2
                    SECONDS     MINUTES      HOURS       DAYS        YEARS
                    -----------------------------------------------------------
   TIME STEP LENGTH  86400.      1440.0      24.000      1.0000     2.73785E-03
 STRESS PERIOD TIME 7.17120E+06 1.19520E+05  1992.0      83.000     0.22724    
         TOTAL TIME 7.25760E+06 1.20960E+05  2016.0      84.000     0.22998    
1
 
 SOLVING FOR HEAD 

 OUTPUT CONTROL FOR STRESS PERIOD    2   TIME STEP  84
    SAVE HEAD FOR ALL LAYERS
    SAVE DRAWDOWN FOR ALL LAYERS
    SAVE BUDGET
    PRINT HEAD FOR ALL LAYERS
    PRINT BUDGET
 UBDSV1 SAVING "         STORAGE" ON UNIT  53 AT TIME STEP 84, STRESS PERIOD   2
 UBDSV2 SAVING "   CONSTANT HEAD" ON UNIT  53 AT TIME STEP 84, STRESS PERIOD   2
 UBDSV1 SAVING "FLOW RIGHT FACE " ON UNIT  53 AT TIME STEP 84, STRESS PERIOD   2
 UBDSV1 SAVING "FLOW FRONT FACE " ON UNIT  53 AT TIME STEP 84, STRESS PERIOD   2
1
              HEAD IN LAYER   1 AT END OF TIME STEP  84 IN STRESS PERIOD    2
  ---------------------------------------------------------------------------

            1           2           3           4           5           6           7           8           9          10
           11          12          13          14          15          16          17          18          19          20
 ........................................................................................................................
   1    9.990       9.507       9.019       8.528       8.032       7.532       7.028       6.519       6.006       5.488    
        4.965       4.437       3.903       3.365       2.821       2.271       1.715       1.154      0.5859      1.1554E-02
   2    9.990       9.507       9.019       8.528       8.032       7.532       7.028       6.519       6.006       5.488    
        4.965       4.437       3.903       3.365       2.821       2.271       1.715       1.154      0.5859      1.1554E-02
   3    9.990       9.507       9.019       8.528       8.032       7.532       7.028       6.519       6.006       5.488    
        4.965       4.437       3.903       3.365       2.821       2.271       1.715       1.154      0.5859      1.1554E-02
   4    9.990       9.507       9.019       8.528       8.032       7.532       7.028       6.519       6.006       5.488    
        4.965       4.437       3.903       3.365       2.821       2.271       1.715       1.154      0.5859      1.1554E-02
   5    9.990       9.507       9.019       8.528       8.032       7.532       7.028       6.519       6.006       5.488    
        4.965       4.437       3.903       3.365       2.821       2.271       1.715       1.154      0.5859      1.1554E-02
   6    9.990       9.507       9.019       8.528       8.032       7.532       7.028       6.519       6.006       5.488    
        4.965       4.437       3.903       3.365       2.821       2.271       1.715       1.154      0.5859      1.1554E-02
   7    9.990       9.507       9.019       8.528       8.032       7.532       7.028       6.519       6.006       5.488    
        4.965       4.437       3.903       3.365       2.821       2.271       1.715       1.154      0.5859      1.1554E-02
   8    9.990       9.507       9.019       8.528       8.032       7.532       7.028       6.519       6.006       5.488    
        4.965       4.437       3.903       3.365       2.821       2.271       1.715       1.154      0.5859      1.1554E-02
   9    9.990       9.507       9.019       8.528       8.032       7.532       7.028       6.519       6.006       5.488    
        4.965       4.437       3.903       3.365       2.821       2.271       1.715       1.154      0.5859      1.1554E-02
  10    9.990       9.507       9.019       8.528       8.032       7.532       7.028       6.519       6.006       5.488    
        4.965       4.437       3.903       3.365       2.821       2.271       1.715       1.154      0.5859      1.1554E-02

 HEAD WILL BE SAVED ON UNIT   51 AT END OF TIME STEP  84, STRESS PERIOD    2

 DRAWDOWN WILL BE SAVED ON UNIT   52 AT END OF TIME STEP  84, STRESS PERIOD    2
1
  VOLUMETRIC BUDGET FOR ENTIRE MODEL AT END OF TIME STEP 84 IN STRESS PERIOD   2
  ------------------------------------------------------------------------------

     CUMULATIVE VOLUMES      L**3       RATES FOR THIS TIME STEP      L**3/T
     ------------------                 ------------------------

           IN:                                      IN:
           ---                                      ---
             STORAGE =           0.2022               STORAGE =       2.4033E-03
       CONSTANT HEAD =           0.0000         CONSTANT HEAD =           0.0000
               WELLS =           0.0000                 WELLS =           0.0000
     HEAD DEP BOUNDS =       49104.6758       HEAD DEP BOUNDS =         577.7015

            TOTAL IN =       49104.8789              TOTAL IN =         577.7039

          OUT:                                     OUT:
          ----                                     ----
             STORAGE =           0.1526               STORAGE =       1.8311E-03
       CONSTANT HEAD =           0.0000         CONSTANT HEAD =           0.0000
               WELLS =           0.0000                 WELLS =           0.0000
     HEAD DEP BOUNDS =       49106.1172       HEAD DEP BOUNDS =         577.7195

           TOTAL OUT =       49106.2695             TOTAL OUT =         577.7213

            IN - OUT =          -1.3906              IN - OUT =      -1.7456E-02

 PERCENT DISCREPANCY =           0.00     PERCENT DISCREPANCY =           0.00






          TIME SUMMARY AT END OF TIME STEP  84 IN STRESS PERIOD    2
                    SECONDS     MINUTES      HOURS       DAYS        YEARS
                    -----------------------------------------------------------
   TIME STEP LENGTH  86400.      1440.0      24.000      1.0000     2.73785E-03
 STRESS PERIOD TIME 7.25760E+06 1.20960E+05  2016.0      84.000     0.22998    
         TOTAL TIME 7.34400E+06 1.22400E+05  2040.0      85.000     0.23272    
1
 
 SOLVING FOR HEAD 

 OUTPUT CONTROL FOR STRESS PERIOD    2   TIME STEP  85
    SAVE HEAD FOR ALL LAYERS
    SAVE DRAWDOWN FOR ALL LAYERS
    SAVE BUDGET
    PRINT HEAD FOR ALL LAYERS
    PRINT BUDGET
 UBDSV1 SAVING "         STORAGE" ON UNIT  53 AT TIME STEP 85, STRESS PERIOD   2
 UBDSV2 SAVING "   CONSTANT HEAD" ON UNIT  53 AT TIME STEP 85, STRESS PERIOD   2
 UBDSV1 SAVING "FLOW RIGHT FACE " ON UNIT  53 AT TIME STEP 85, STRESS PERIOD   2
 UBDSV1 SAVING "FLOW FRONT FACE " ON UNIT  53 AT TIME STEP 85, STRESS PERIOD   2
1
              HEAD IN LAYER   1 AT END OF TIME STEP  85 IN STRESS PERIOD    2
  ---------------------------------------------------------------------------

            1           2           3           4           5           6           7           8           9          10
           11          12          13          14          15          16          17          18          19          20
 ........................................................................................................................
   1    9.990       9.507       9.019       8.528       8.032       7.532       7.028       6.519       6.006       5.488    
        4.965       4.437       3.903       3.365       2.821       2.271       1.715       1.154      0.5859      1.1554E-02
   2    9.990       9.507       9.019       8.528       8.032       7.532       7.028       6.519       6.006       5.488    
        4.965       4.437       3.903       3.365       2.821       2.271       1.715       1.154      0.5859      1.1554E-02
   3    9.990       9.507       9.019       8.528       8.032       7.532       7.028       6.519       6.006       5.488    
        4.965       4.437       3.903       3.365       2.821       2.271       1.715       1.154      0.5859      1.1554E-02
   4    9.990       9.507       9.019       8.528       8.032       7.532       7.028       6.519       6.006       5.488    
        4.965       4.437       3.903       3.365       2.821       2.271       1.715       1.154      0.5859      1.1554E-02
   5    9.990       9.507       9.019       8.528       8.032       7.532       7.028       6.519       6.006       5.488    
        4.965       4.437       3.903       3.365       2.821       2.271       1.715       1.154      0.5859      1.1554E-02
   6    9.990       9.507       9.019       8.528       8.032       7.532       7.028       6.519       6.006       5.488    
        4.965       4.437       3.903       3.365       2.821       2.271       1.715       1.154      0.5859      1.1554E-02
   7    9.990       9.507       9.019       8.528       8.032       7.532       7.028       6.519       6.006       5.488    
        4.965       4.437       3.903       3.365       2.821       2.271       1.715       1.154      0.5859      1.1554E-02
   8    9.990       9.507       9.019       8.528       8.032       7.532       7.028       6.519       6.006       5.488    
        4.965       4.437       3.903       3.365       2.821       2.271       1.715       1.154      0.5859      1.1554E-02
   9    9.990       9.507       9.019       8.528       8.032       7.532       7.028       6.519       6.006       5.488    
        4.965       4.437       3.903       3.365       2.821       2.271       1.715       1.154      0.5859      1.1554E-02
  10    9.990       9.507       9.019       8.528       8.032       7.532       7.028       6.519       6.006       5.488    
        4.965       4.437       3.903       3.365       2.821       2.271       1.715       1.154      0.5859      1.1554E-02

 HEAD WILL BE SAVED ON UNIT   51 AT END OF TIME STEP  85, STRESS PERIOD    2

 DRAWDOWN WILL BE SAVED ON UNIT   52 AT END OF TIME STEP  85, STRESS PERIOD    2
1
  VOLUMETRIC BUDGET FOR ENTIRE MODEL AT END OF TIME STEP 85 IN STRESS PERIOD   2
  ------------------------------------------------------------------------------

     CUMULATIVE VOLUMES      L**3       RATES FOR THIS TIME STEP      L**3/T
     ------------------                 ------------------------

           IN:                                      IN:
           ---                                      ---
             STORAGE =           0.2046               STORAGE =       2.4033E-03
       CONSTANT HEAD =           0.0000         CONSTANT HEAD =           0.0000
               WELLS =           0.0000                 WELLS =           0.0000
     HEAD DEP BOUNDS =       49682.3789       HEAD DEP BOUNDS =         577.7015

            TOTAL IN =       49682.5820              TOTAL IN =         577.7039

          OUT:                                     OUT:
          ----                                     ----
             STORAGE =           0.1544               STORAGE =       1.8311E-03
       CONSTANT HEAD =           0.0000         CONSTANT HEAD =           0.0000
               WELLS =           0.0000                 WELLS =           0.0000
     HEAD DEP BOUNDS =       49683.8359       HEAD DEP BOUNDS =         577.7195

           TOTAL OUT =       49683.9922             TOTAL OUT =         577.7213

            IN - OUT =          -1.4102              IN - OUT =      -1.7456E-02

 PERCENT DISCREPANCY =           0.00     PERCENT DISCREPANCY =           0.00






          TIME SUMMARY AT END OF TIME STEP  85 IN STRESS PERIOD    2
                    SECONDS     MINUTES      HOURS       DAYS        YEARS
                    -----------------------------------------------------------
   TIME STEP LENGTH  86400.      1440.0      24.000      1.0000     2.73785E-03
 STRESS PERIOD TIME 7.34400E+06 1.22400E+05  2040.0      85.000     0.23272    
         TOTAL TIME 7.43040E+06 1.23840E+05  2064.0      86.000     0.23546    
1
 
 SOLVING FOR HEAD 

 OUTPUT CONTROL FOR STRESS PERIOD    2   TIME STEP  86
    SAVE HEAD FOR ALL LAYERS
    SAVE DRAWDOWN FOR ALL LAYERS
    SAVE BUDGET
    PRINT HEAD FOR ALL LAYERS
    PRINT BUDGET
 UBDSV1 SAVING "         STORAGE" ON UNIT  53 AT TIME STEP 86, STRESS PERIOD   2
 UBDSV2 SAVING "   CONSTANT HEAD" ON UNIT  53 AT TIME STEP 86, STRESS PERIOD   2
 UBDSV1 SAVING "FLOW RIGHT FACE " ON UNIT  53 AT TIME STEP 86, STRESS PERIOD   2
 UBDSV1 SAVING "FLOW FRONT FACE " ON UNIT  53 AT TIME STEP 86, STRESS PERIOD   2
1
              HEAD IN LAYER   1 AT END OF TIME STEP  86 IN STRESS PERIOD    2
  ---------------------------------------------------------------------------

            1           2           3           4           5           6           7           8           9          10
           11          12          13          14          15          16          17          18          19          20
 ........................................................................................................................
   1    9.990       9.507       9.019       8.528       8.032       7.532       7.028       6.519       6.006       5.488    
        4.965       4.437       3.903       3.365       2.821       2.271       1.715       1.154      0.5859      1.1554E-02
   2    9.990       9.507       9.019       8.528       8.032       7.532       7.028       6.519       6.006       5.488    
        4.965       4.437       3.903       3.365       2.821       2.271       1.715       1.154      0.5859      1.1554E-02
   3    9.990       9.507       9.019       8.528       8.032       7.532       7.028       6.519       6.006       5.488    
        4.965       4.437       3.903       3.365       2.821       2.271       1.715       1.154      0.5859      1.1554E-02
   4    9.990       9.507       9.019       8.528       8.032       7.532       7.028       6.519       6.006       5.488    
        4.965       4.437       3.903       3.365       2.821       2.271       1.715       1.154      0.5859      1.1554E-02
   5    9.990       9.507       9.019       8.528       8.032       7.532       7.028       6.519       6.006       5.488    
        4.965       4.437       3.903       3.365       2.821       2.271       1.715       1.154      0.5859      1.1554E-02
   6    9.990       9.507       9.019       8.528       8.032       7.532       7.028       6.519       6.006       5.488    
        4.965       4.437       3.903       3.365       2.821       2.271       1.715       1.154      0.5859      1.1554E-02
   7    9.990       9.507       9.019       8.528       8.032       7.532       7.028       6.519       6.006       5.488    
        4.965       4.437       3.903       3.365       2.821       2.271       1.715       1.154      0.5859      1.1554E-02
   8    9.990       9.507       9.019       8.528       8.032       7.532       7.028       6.519       6.006       5.488    
        4.965       4.437       3.903       3.365       2.821       2.271       1.715       1.154      0.5859      1.1554E-02
   9    9.990       9.507       9.019       8.528       8.032       7.532       7.028       6.519       6.006       5.488    
        4.965       4.437       3.903       3.365       2.821       2.271       1.715       1.154      0.5859      1.1554E-02
  10    9.990       9.507       9.019       8.528       8.032       7.532       7.028       6.519       6.006       5.488    
        4.965       4.437       3.903       3.365       2.821       2.271       1.715       1.154      0.5859      1.1554E-02

 HEAD WILL BE SAVED ON UNIT   51 AT END OF TIME STEP  86, STRESS PERIOD    2

 DRAWDOWN WILL BE SAVED ON UNIT   52 AT END OF TIME STEP  86, STRESS PERIOD    2
1
  VOLUMETRIC BUDGET FOR ENTIRE MODEL AT END OF TIME STEP 86 IN STRESS PERIOD   2
  ------------------------------------------------------------------------------

     CUMULATIVE VOLUMES      L**3       RATES FOR THIS TIME STEP      L**3/T
     ------------------                 ------------------------

           IN:                                      IN:
           ---                                      ---
             STORAGE =           0.2071               STORAGE =       2.4033E-03
       CONSTANT HEAD =           0.0000         CONSTANT HEAD =           0.0000
               WELLS =           0.0000                 WELLS =           0.0000
     HEAD DEP BOUNDS =       50260.0820       HEAD DEP BOUNDS =         577.7015

            TOTAL IN =       50260.2891              TOTAL IN =         577.7039

          OUT:                                     OUT:
          ----                                     ----
             STORAGE =           0.1562               STORAGE =       1.8311E-03
       CONSTANT HEAD =           0.0000         CONSTANT HEAD =           0.0000
               WELLS =           0.0000                 WELLS =           0.0000
     HEAD DEP BOUNDS =       50261.5547       HEAD DEP BOUNDS =         577.7195

           TOTAL OUT =       50261.7109             TOTAL OUT =         577.7213

            IN - OUT =          -1.4219              IN - OUT =      -1.7456E-02

 PERCENT DISCREPANCY =           0.00     PERCENT DISCREPANCY =           0.00






          TIME SUMMARY AT END OF TIME STEP  86 IN STRESS PERIOD    2
                    SECONDS     MINUTES      HOURS       DAYS        YEARS
                    -----------------------------------------------------------
   TIME STEP LENGTH  86400.      1440.0      24.000      1.0000     2.73785E-03
 STRESS PERIOD TIME 7.43040E+06 1.23840E+05  2064.0      86.000     0.23546    
         TOTAL TIME 7.51680E+06 1.25280E+05  2088.0      87.000     0.23819    
1
 
 SOLVING FOR HEAD 

 OUTPUT CONTROL FOR STRESS PERIOD    2   TIME STEP  87
    SAVE HEAD FOR ALL LAYERS
    SAVE DRAWDOWN FOR ALL LAYERS
    SAVE BUDGET
    PRINT HEAD FOR ALL LAYERS
    PRINT BUDGET
 UBDSV1 SAVING "         STORAGE" ON UNIT  53 AT TIME STEP 87, STRESS PERIOD   2
 UBDSV2 SAVING "   CONSTANT HEAD" ON UNIT  53 AT TIME STEP 87, STRESS PERIOD   2
 UBDSV1 SAVING "FLOW RIGHT FACE " ON UNIT  53 AT TIME STEP 87, STRESS PERIOD   2
 UBDSV1 SAVING "FLOW FRONT FACE " ON UNIT  53 AT TIME STEP 87, STRESS PERIOD   2
1
              HEAD IN LAYER   1 AT END OF TIME STEP  87 IN STRESS PERIOD    2
  ---------------------------------------------------------------------------

            1           2           3           4           5           6           7           8           9          10
           11          12          13          14          15          16          17          18          19          20
 ........................................................................................................................
   1    9.990       9.507       9.019       8.528       8.032       7.532       7.028       6.519       6.006       5.488    
        4.965       4.437       3.903       3.365       2.821       2.271       1.715       1.154      0.5859      1.1554E-02
   2    9.990       9.507       9.019       8.528       8.032       7.532       7.028       6.519       6.006       5.488    
        4.965       4.437       3.903       3.365       2.821       2.271       1.715       1.154      0.5859      1.1554E-02
   3    9.990       9.507       9.019       8.528       8.032       7.532       7.028       6.519       6.006       5.488    
        4.965       4.437       3.903       3.365       2.821       2.271       1.715       1.154      0.5859      1.1554E-02
   4    9.990       9.507       9.019       8.528       8.032       7.532       7.028       6.519       6.006       5.488    
        4.965       4.437       3.903       3.365       2.821       2.271       1.715       1.154      0.5859      1.1554E-02
   5    9.990       9.507       9.019       8.528       8.032       7.532       7.028       6.519       6.006       5.488    
        4.965       4.437       3.903       3.365       2.821       2.271       1.715       1.154      0.5859      1.1554E-02
   6    9.990       9.507       9.019       8.528       8.032       7.532       7.028       6.519       6.006       5.488    
        4.965       4.437       3.903       3.365       2.821       2.271       1.715       1.154      0.5859      1.1554E-02
   7    9.990       9.507       9.019       8.528       8.032       7.532       7.028       6.519       6.006       5.488    
        4.965       4.437       3.903       3.365       2.821       2.271       1.715       1.154      0.5859      1.1554E-02
   8    9.990       9.507       9.019       8.528       8.032       7.532       7.028       6.519       6.006       5.488    
        4.965       4.437       3.903       3.365       2.821       2.271       1.715       1.154      0.5859      1.1554E-02
   9    9.990       9.507       9.019       8.528       8.032       7.532       7.028       6.519       6.006       5.488    
        4.965       4.437       3.903       3.365       2.821       2.271       1.715       1.154      0.5859      1.1554E-02
  10    9.990       9.507       9.019       8.528       8.032       7.532       7.028       6.519       6.006       5.488    
        4.965       4.437       3.903       3.365       2.821       2.271       1.715       1.154      0.5859      1.1554E-02

 HEAD WILL BE SAVED ON UNIT   51 AT END OF TIME STEP  87, STRESS PERIOD    2

 DRAWDOWN WILL BE SAVED ON UNIT   52 AT END OF TIME STEP  87, STRESS PERIOD    2
1
  VOLUMETRIC BUDGET FOR ENTIRE MODEL AT END OF TIME STEP 87 IN STRESS PERIOD   2
  ------------------------------------------------------------------------------

     CUMULATIVE VOLUMES      L**3       RATES FOR THIS TIME STEP      L**3/T
     ------------------                 ------------------------

           IN:                                      IN:
           ---                                      ---
             STORAGE =           0.2095               STORAGE =       2.4033E-03
       CONSTANT HEAD =           0.0000         CONSTANT HEAD =           0.0000
               WELLS =           0.0000                 WELLS =           0.0000
     HEAD DEP BOUNDS =       50837.7852       HEAD DEP BOUNDS =         577.7015

            TOTAL IN =       50837.9961              TOTAL IN =         577.7039

          OUT:                                     OUT:
          ----                                     ----
             STORAGE =           0.1581               STORAGE =       1.8311E-03
       CONSTANT HEAD =           0.0000         CONSTANT HEAD =           0.0000
               WELLS =           0.0000                 WELLS =           0.0000
     HEAD DEP BOUNDS =       50839.2734       HEAD DEP BOUNDS =         577.7195

           TOTAL OUT =       50839.4297             TOTAL OUT =         577.7213

            IN - OUT =          -1.4336              IN - OUT =      -1.7456E-02

 PERCENT DISCREPANCY =           0.00     PERCENT DISCREPANCY =           0.00






          TIME SUMMARY AT END OF TIME STEP  87 IN STRESS PERIOD    2
                    SECONDS     MINUTES      HOURS       DAYS        YEARS
                    -----------------------------------------------------------
   TIME STEP LENGTH  86400.      1440.0      24.000      1.0000     2.73785E-03
 STRESS PERIOD TIME 7.51680E+06 1.25280E+05  2088.0      87.000     0.23819    
         TOTAL TIME 7.60320E+06 1.26720E+05  2112.0      88.000     0.24093    
1
 
 SOLVING FOR HEAD 

 OUTPUT CONTROL FOR STRESS PERIOD    2   TIME STEP  88
    SAVE HEAD FOR ALL LAYERS
    SAVE DRAWDOWN FOR ALL LAYERS
    SAVE BUDGET
    PRINT HEAD FOR ALL LAYERS
    PRINT BUDGET
 UBDSV1 SAVING "         STORAGE" ON UNIT  53 AT TIME STEP 88, STRESS PERIOD   2
 UBDSV2 SAVING "   CONSTANT HEAD" ON UNIT  53 AT TIME STEP 88, STRESS PERIOD   2
 UBDSV1 SAVING "FLOW RIGHT FACE " ON UNIT  53 AT TIME STEP 88, STRESS PERIOD   2
 UBDSV1 SAVING "FLOW FRONT FACE " ON UNIT  53 AT TIME STEP 88, STRESS PERIOD   2
1
              HEAD IN LAYER   1 AT END OF TIME STEP  88 IN STRESS PERIOD    2
  ---------------------------------------------------------------------------

            1           2           3           4           5           6           7           8           9          10
           11          12          13          14          15          16          17          18          19          20
 ........................................................................................................................
   1    9.990       9.507       9.019       8.528       8.032       7.532       7.028       6.519       6.006       5.488    
        4.965       4.437       3.903       3.365       2.821       2.271       1.715       1.154      0.5859      1.1554E-02
   2    9.990       9.507       9.019       8.528       8.032       7.532       7.028       6.519       6.006       5.488    
        4.965       4.437       3.903       3.365       2.821       2.271       1.715       1.154      0.5859      1.1554E-02
   3    9.990       9.507       9.019       8.528       8.032       7.532       7.028       6.519       6.006       5.488    
        4.965       4.437       3.903       3.365       2.821       2.271       1.715       1.154      0.5859      1.1554E-02
   4    9.990       9.507       9.019       8.528       8.032       7.532       7.028       6.519       6.006       5.488    
        4.965       4.437       3.903       3.365       2.821       2.271       1.715       1.154      0.5859      1.1554E-02
   5    9.990       9.507       9.019       8.528       8.032       7.532       7.028       6.519       6.006       5.488    
        4.965       4.437       3.903       3.365       2.821       2.271       1.715       1.154      0.5859      1.1554E-02
   6    9.990       9.507       9.019       8.528       8.032       7.532       7.028       6.519       6.006       5.488    
        4.965       4.437       3.903       3.365       2.821       2.271       1.715       1.154      0.5859      1.1554E-02
   7    9.990       9.507       9.019       8.528       8.032       7.532       7.028       6.519       6.006       5.488    
        4.965       4.437       3.903       3.365       2.821       2.271       1.715       1.154      0.5859      1.1554E-02
   8    9.990       9.507       9.019       8.528       8.032       7.532       7.028       6.519       6.006       5.488    
        4.965       4.437       3.903       3.365       2.821       2.271       1.715       1.154      0.5859      1.1554E-02
   9    9.990       9.507       9.019       8.528       8.032       7.532       7.028       6.519       6.006       5.488    
        4.965       4.437       3.903       3.365       2.821       2.271       1.715       1.154      0.5859      1.1554E-02
  10    9.990       9.507       9.019       8.528       8.032       7.532       7.028       6.519       6.006       5.488    
        4.965       4.437       3.903       3.365       2.821       2.271       1.715       1.154      0.5859      1.1554E-02

 HEAD WILL BE SAVED ON UNIT   51 AT END OF TIME STEP  88, STRESS PERIOD    2

 DRAWDOWN WILL BE SAVED ON UNIT   52 AT END OF TIME STEP  88, STRESS PERIOD    2
1
  VOLUMETRIC BUDGET FOR ENTIRE MODEL AT END OF TIME STEP 88 IN STRESS PERIOD   2
  ------------------------------------------------------------------------------

     CUMULATIVE VOLUMES      L**3       RATES FOR THIS TIME STEP      L**3/T
     ------------------                 ------------------------

           IN:                                      IN:
           ---                                      ---
             STORAGE =           0.2119               STORAGE =       2.4033E-03
       CONSTANT HEAD =           0.0000         CONSTANT HEAD =           0.0000
               WELLS =           0.0000                 WELLS =           0.0000
     HEAD DEP BOUNDS =       51415.4883       HEAD DEP BOUNDS =         577.7015

            TOTAL IN =       51415.6992              TOTAL IN =         577.7039

          OUT:                                     OUT:
          ----                                     ----
             STORAGE =           0.1599               STORAGE =       1.8311E-03
       CONSTANT HEAD =           0.0000         CONSTANT HEAD =           0.0000
               WELLS =           0.0000                 WELLS =           0.0000
     HEAD DEP BOUNDS =       51416.9922       HEAD DEP BOUNDS =         577.7195

           TOTAL OUT =       51417.1523             TOTAL OUT =         577.7213

            IN - OUT =          -1.4531              IN - OUT =      -1.7456E-02

 PERCENT DISCREPANCY =           0.00     PERCENT DISCREPANCY =           0.00






          TIME SUMMARY AT END OF TIME STEP  88 IN STRESS PERIOD    2
                    SECONDS     MINUTES      HOURS       DAYS        YEARS
                    -----------------------------------------------------------
   TIME STEP LENGTH  86400.      1440.0      24.000      1.0000     2.73785E-03
 STRESS PERIOD TIME 7.60320E+06 1.26720E+05  2112.0      88.000     0.24093    
         TOTAL TIME 7.68960E+06 1.28160E+05  2136.0      89.000     0.24367    
1
 
 SOLVING FOR HEAD 

 OUTPUT CONTROL FOR STRESS PERIOD    2   TIME STEP  89
    SAVE HEAD FOR ALL LAYERS
    SAVE DRAWDOWN FOR ALL LAYERS
    SAVE BUDGET
    PRINT HEAD FOR ALL LAYERS
    PRINT BUDGET
 UBDSV1 SAVING "         STORAGE" ON UNIT  53 AT TIME STEP 89, STRESS PERIOD   2
 UBDSV2 SAVING "   CONSTANT HEAD" ON UNIT  53 AT TIME STEP 89, STRESS PERIOD   2
 UBDSV1 SAVING "FLOW RIGHT FACE " ON UNIT  53 AT TIME STEP 89, STRESS PERIOD   2
 UBDSV1 SAVING "FLOW FRONT FACE " ON UNIT  53 AT TIME STEP 89, STRESS PERIOD   2
1
              HEAD IN LAYER   1 AT END OF TIME STEP  89 IN STRESS PERIOD    2
  ---------------------------------------------------------------------------

            1           2           3           4           5           6           7           8           9          10
           11          12          13          14          15          16          17          18          19          20
 ........................................................................................................................
   1    9.990       9.507       9.019       8.528       8.032       7.532       7.028       6.519       6.006       5.488    
        4.965       4.437       3.903       3.365       2.821       2.271       1.715       1.154      0.5859      1.1554E-02
   2    9.990       9.507       9.019       8.528       8.032       7.532       7.028       6.519       6.006       5.488    
        4.965       4.437       3.903       3.365       2.821       2.271       1.715       1.154      0.5859      1.1554E-02
   3    9.990       9.507       9.019       8.528       8.032       7.532       7.028       6.519       6.006       5.488    
        4.965       4.437       3.903       3.365       2.821       2.271       1.715       1.154      0.5859      1.1554E-02
   4    9.990       9.507       9.019       8.528       8.032       7.532       7.028       6.519       6.006       5.488    
        4.965       4.437       3.903       3.365       2.821       2.271       1.715       1.154      0.5859      1.1554E-02
   5    9.990       9.507       9.019       8.528       8.032       7.532       7.028       6.519       6.006       5.488    
        4.965       4.437       3.903       3.365       2.821       2.271       1.715       1.154      0.5859      1.1554E-02
   6    9.990       9.507       9.019       8.528       8.032       7.532       7.028       6.519       6.006       5.488    
        4.965       4.437       3.903       3.365       2.821       2.271       1.715       1.154      0.5859      1.1554E-02
   7    9.990       9.507       9.019       8.528       8.032       7.532       7.028       6.519       6.006       5.488    
        4.965       4.437       3.903       3.365       2.821       2.271       1.715       1.154      0.5859      1.1554E-02
   8    9.990       9.507       9.019       8.528       8.032       7.532       7.028       6.519       6.006       5.488    
        4.965       4.437       3.903       3.365       2.821       2.271       1.715       1.154      0.5859      1.1554E-02
   9    9.990       9.507       9.019       8.528       8.032       7.532       7.028       6.519       6.006       5.488    
        4.965       4.437       3.903       3.365       2.821       2.271       1.715       1.154      0.5859      1.1554E-02
  10    9.990       9.507       9.019       8.528       8.032       7.532       7.028       6.519       6.006       5.488    
        4.965       4.437       3.903       3.365       2.821       2.271       1.715       1.154      0.5859      1.1554E-02

 HEAD WILL BE SAVED ON UNIT   51 AT END OF TIME STEP  89, STRESS PERIOD    2

 DRAWDOWN WILL BE SAVED ON UNIT   52 AT END OF TIME STEP  89, STRESS PERIOD    2
1
  VOLUMETRIC BUDGET FOR ENTIRE MODEL AT END OF TIME STEP 89 IN STRESS PERIOD   2
  ------------------------------------------------------------------------------

     CUMULATIVE VOLUMES      L**3       RATES FOR THIS TIME STEP      L**3/T
     ------------------                 ------------------------

           IN:                                      IN:
           ---                                      ---
             STORAGE =           0.2143               STORAGE =       2.4033E-03
       CONSTANT HEAD =           0.0000         CONSTANT HEAD =           0.0000
               WELLS =           0.0000                 WELLS =           0.0000
     HEAD DEP BOUNDS =       51993.1914       HEAD DEP BOUNDS =         577.7015

            TOTAL IN =       51993.4062              TOTAL IN =         577.7039

          OUT:                                     OUT:
          ----                                     ----
             STORAGE =           0.1617               STORAGE =       1.8311E-03
       CONSTANT HEAD =           0.0000         CONSTANT HEAD =           0.0000
               WELLS =           0.0000                 WELLS =           0.0000
     HEAD DEP BOUNDS =       51994.7109       HEAD DEP BOUNDS =         577.7195

           TOTAL OUT =       51994.8711             TOTAL OUT =         577.7213

            IN - OUT =          -1.4648              IN - OUT =      -1.7456E-02

 PERCENT DISCREPANCY =           0.00     PERCENT DISCREPANCY =           0.00






          TIME SUMMARY AT END OF TIME STEP  89 IN STRESS PERIOD    2
                    SECONDS     MINUTES      HOURS       DAYS        YEARS
                    -----------------------------------------------------------
   TIME STEP LENGTH  86400.      1440.0      24.000      1.0000     2.73785E-03
 STRESS PERIOD TIME 7.68960E+06 1.28160E+05  2136.0      89.000     0.24367    
         TOTAL TIME 7.77600E+06 1.29600E+05  2160.0      90.000     0.24641    
1
 
 SOLVING FOR HEAD 

 OUTPUT CONTROL FOR STRESS PERIOD    2   TIME STEP  90
    SAVE HEAD FOR ALL LAYERS
    SAVE DRAWDOWN FOR ALL LAYERS
    SAVE BUDGET
    PRINT HEAD FOR ALL LAYERS
    PRINT BUDGET
 UBDSV1 SAVING "         STORAGE" ON UNIT  53 AT TIME STEP 90, STRESS PERIOD   2
 UBDSV2 SAVING "   CONSTANT HEAD" ON UNIT  53 AT TIME STEP 90, STRESS PERIOD   2
 UBDSV1 SAVING "FLOW RIGHT FACE " ON UNIT  53 AT TIME STEP 90, STRESS PERIOD   2
 UBDSV1 SAVING "FLOW FRONT FACE " ON UNIT  53 AT TIME STEP 90, STRESS PERIOD   2
1
              HEAD IN LAYER   1 AT END OF TIME STEP  90 IN STRESS PERIOD    2
  ---------------------------------------------------------------------------

            1           2           3           4           5           6           7           8           9          10
           11          12          13          14          15          16          17          18          19          20
 ........................................................................................................................
   1    9.990       9.507       9.019       8.528       8.032       7.532       7.028       6.519       6.006       5.488    
        4.965       4.437       3.903       3.365       2.821       2.271       1.715       1.154      0.5859      1.1554E-02
   2    9.990       9.507       9.019       8.528       8.032       7.532       7.028       6.519       6.006       5.488    
        4.965       4.437       3.903       3.365       2.821       2.271       1.715       1.154      0.5859      1.1554E-02
   3    9.990       9.507       9.019       8.528       8.032       7.532       7.028       6.519       6.006       5.488    
        4.965       4.437       3.903       3.365       2.821       2.271       1.715       1.154      0.5859      1.1554E-02
   4    9.990       9.507       9.019       8.528       8.032       7.532       7.028       6.519       6.006       5.488    
        4.965       4.437       3.903       3.365       2.821       2.271       1.715       1.154      0.5859      1.1554E-02
   5    9.990       9.507       9.019       8.528       8.032       7.532       7.028       6.519       6.006       5.488    
        4.965       4.437       3.903       3.365       2.821       2.271       1.715       1.154      0.5859      1.1554E-02
   6    9.990       9.507       9.019       8.528       8.032       7.532       7.028       6.519       6.006       5.488    
        4.965       4.437       3.903       3.365       2.821       2.271       1.715       1.154      0.5859      1.1554E-02
   7    9.990       9.507       9.019       8.528       8.032       7.532       7.028       6.519       6.006       5.488    
        4.965       4.437       3.903       3.365       2.821       2.271       1.715       1.154      0.5859      1.1554E-02
   8    9.990       9.507       9.019       8.528       8.032       7.532       7.028       6.519       6.006       5.488    
        4.965       4.437       3.903       3.365       2.821       2.271       1.715       1.154      0.5859      1.1554E-02
   9    9.990       9.507       9.019       8.528       8.032       7.532       7.028       6.519       6.006       5.488    
        4.965       4.437       3.903       3.365       2.821       2.271       1.715       1.154      0.5859      1.1554E-02
  10    9.990       9.507       9.019       8.528       8.032       7.532       7.028       6.519       6.006       5.488    
        4.965       4.437       3.903       3.365       2.821       2.271       1.715       1.154      0.5859      1.1554E-02

 HEAD WILL BE SAVED ON UNIT   51 AT END OF TIME STEP  90, STRESS PERIOD    2

 DRAWDOWN WILL BE SAVED ON UNIT   52 AT END OF TIME STEP  90, STRESS PERIOD    2
1
  VOLUMETRIC BUDGET FOR ENTIRE MODEL AT END OF TIME STEP 90 IN STRESS PERIOD   2
  ------------------------------------------------------------------------------

     CUMULATIVE VOLUMES      L**3       RATES FOR THIS TIME STEP      L**3/T
     ------------------                 ------------------------

           IN:                                      IN:
           ---                                      ---
             STORAGE =           0.2167               STORAGE =       2.4033E-03
       CONSTANT HEAD =           0.0000         CONSTANT HEAD =           0.0000
               WELLS =           0.0000                 WELLS =           0.0000
     HEAD DEP BOUNDS =       52570.8945       HEAD DEP BOUNDS =         577.7015

            TOTAL IN =       52571.1094              TOTAL IN =         577.7039

          OUT:                                     OUT:
          ----                                     ----
             STORAGE =           0.1636               STORAGE =       1.8311E-03
       CONSTANT HEAD =           0.0000         CONSTANT HEAD =           0.0000
               WELLS =           0.0000                 WELLS =           0.0000
     HEAD DEP BOUNDS =       52572.4297       HEAD DEP BOUNDS =         577.7195

           TOTAL OUT =       52572.5938             TOTAL OUT =         577.7213

            IN - OUT =          -1.4844              IN - OUT =      -1.7456E-02

 PERCENT DISCREPANCY =           0.00     PERCENT DISCREPANCY =           0.00






          TIME SUMMARY AT END OF TIME STEP  90 IN STRESS PERIOD    2
                    SECONDS     MINUTES      HOURS       DAYS        YEARS
                    -----------------------------------------------------------
   TIME STEP LENGTH  86400.      1440.0      24.000      1.0000     2.73785E-03
 STRESS PERIOD TIME 7.77600E+06 1.29600E+05  2160.0      90.000     0.24641    
         TOTAL TIME 7.86240E+06 1.31040E+05  2184.0      91.000     0.24914    
1
 
 SOLVING FOR HEAD 

 OUTPUT CONTROL FOR STRESS PERIOD    2   TIME STEP  91
    SAVE HEAD FOR ALL LAYERS
    SAVE DRAWDOWN FOR ALL LAYERS
    SAVE BUDGET
    PRINT HEAD FOR ALL LAYERS
    PRINT BUDGET
 UBDSV1 SAVING "         STORAGE" ON UNIT  53 AT TIME STEP 91, STRESS PERIOD   2
 UBDSV2 SAVING "   CONSTANT HEAD" ON UNIT  53 AT TIME STEP 91, STRESS PERIOD   2
 UBDSV1 SAVING "FLOW RIGHT FACE " ON UNIT  53 AT TIME STEP 91, STRESS PERIOD   2
 UBDSV1 SAVING "FLOW FRONT FACE " ON UNIT  53 AT TIME STEP 91, STRESS PERIOD   2
1
              HEAD IN LAYER   1 AT END OF TIME STEP  91 IN STRESS PERIOD    2
  ---------------------------------------------------------------------------

            1           2           3           4           5           6           7           8           9          10
           11          12          13          14          15          16          17          18          19          20
 ........................................................................................................................
   1    9.990       9.507       9.019       8.528       8.032       7.532       7.028       6.519       6.006       5.488    
        4.965       4.437       3.903       3.365       2.821       2.271       1.715       1.154      0.5859      1.1554E-02
   2    9.990       9.507       9.019       8.528       8.032       7.532       7.028       6.519       6.006       5.488    
        4.965       4.437       3.903       3.365       2.821       2.271       1.715       1.154      0.5859      1.1554E-02
   3    9.990       9.507       9.019       8.528       8.032       7.532       7.028       6.519       6.006       5.488    
        4.965       4.437       3.903       3.365       2.821       2.271       1.715       1.154      0.5859      1.1554E-02
   4    9.990       9.507       9.019       8.528       8.032       7.532       7.028       6.519       6.006       5.488    
        4.965       4.437       3.903       3.365       2.821       2.271       1.715       1.154      0.5859      1.1554E-02
   5    9.990       9.507       9.019       8.528       8.032       7.532       7.028       6.519       6.006       5.488    
        4.965       4.437       3.903       3.365       2.821       2.271       1.715       1.154      0.5859      1.1554E-02
   6    9.990       9.507       9.019       8.528       8.032       7.532       7.028       6.519       6.006       5.488    
        4.965       4.437       3.903       3.365       2.821       2.271       1.715       1.154      0.5859      1.1554E-02
   7    9.990       9.507       9.019       8.528       8.032       7.532       7.028       6.519       6.006       5.488    
        4.965       4.437       3.903       3.365       2.821       2.271       1.715       1.154      0.5859      1.1554E-02
   8    9.990       9.507       9.019       8.528       8.032       7.532       7.028       6.519       6.006       5.488    
        4.965       4.437       3.903       3.365       2.821       2.271       1.715       1.154      0.5859      1.1554E-02
   9    9.990       9.507       9.019       8.528       8.032       7.532       7.028       6.519       6.006       5.488    
        4.965       4.437       3.903       3.365       2.821       2.271       1.715       1.154      0.5859      1.1554E-02
  10    9.990       9.507       9.019       8.528       8.032       7.532       7.028       6.519       6.006       5.488    
        4.965       4.437       3.903       3.365       2.821       2.271       1.715       1.154      0.5859      1.1554E-02

 HEAD WILL BE SAVED ON UNIT   51 AT END OF TIME STEP  91, STRESS PERIOD    2

 DRAWDOWN WILL BE SAVED ON UNIT   52 AT END OF TIME STEP  91, STRESS PERIOD    2
1
  VOLUMETRIC BUDGET FOR ENTIRE MODEL AT END OF TIME STEP 91 IN STRESS PERIOD   2
  ------------------------------------------------------------------------------

     CUMULATIVE VOLUMES      L**3       RATES FOR THIS TIME STEP      L**3/T
     ------------------                 ------------------------

           IN:                                      IN:
           ---                                      ---
             STORAGE =           0.2191               STORAGE =       2.4033E-03
       CONSTANT HEAD =           0.0000         CONSTANT HEAD =           0.0000
               WELLS =           0.0000                 WELLS =           0.0000
     HEAD DEP BOUNDS =       53148.5977       HEAD DEP BOUNDS =         577.7015

            TOTAL IN =       53148.8164              TOTAL IN =         577.7039

          OUT:                                     OUT:
          ----                                     ----
             STORAGE =           0.1654               STORAGE =       1.8311E-03
       CONSTANT HEAD =           0.0000         CONSTANT HEAD =           0.0000
               WELLS =           0.0000                 WELLS =           0.0000
     HEAD DEP BOUNDS =       53150.1484       HEAD DEP BOUNDS =         577.7195

           TOTAL OUT =       53150.3125             TOTAL OUT =         577.7213

            IN - OUT =          -1.4961              IN - OUT =      -1.7456E-02

 PERCENT DISCREPANCY =           0.00     PERCENT DISCREPANCY =           0.00






          TIME SUMMARY AT END OF TIME STEP  91 IN STRESS PERIOD    2
                    SECONDS     MINUTES      HOURS       DAYS        YEARS
                    -----------------------------------------------------------
   TIME STEP LENGTH  86400.      1440.0      24.000      1.0000     2.73785E-03
 STRESS PERIOD TIME 7.86240E+06 1.31040E+05  2184.0      91.000     0.24914    
         TOTAL TIME 7.94880E+06 1.32480E+05  2208.0      92.000     0.25188    
1
 
 SOLVING FOR HEAD 

 OUTPUT CONTROL FOR STRESS PERIOD    2   TIME STEP  92
    SAVE HEAD FOR ALL LAYERS
    SAVE DRAWDOWN FOR ALL LAYERS
    SAVE BUDGET
    PRINT HEAD FOR ALL LAYERS
    PRINT BUDGET
 UBDSV1 SAVING "         STORAGE" ON UNIT  53 AT TIME STEP 92, STRESS PERIOD   2
 UBDSV2 SAVING "   CONSTANT HEAD" ON UNIT  53 AT TIME STEP 92, STRESS PERIOD   2
 UBDSV1 SAVING "FLOW RIGHT FACE " ON UNIT  53 AT TIME STEP 92, STRESS PERIOD   2
 UBDSV1 SAVING "FLOW FRONT FACE " ON UNIT  53 AT TIME STEP 92, STRESS PERIOD   2
1
              HEAD IN LAYER   1 AT END OF TIME STEP  92 IN STRESS PERIOD    2
  ---------------------------------------------------------------------------

            1           2           3           4           5           6           7           8           9          10
           11          12          13          14          15          16          17          18          19          20
 ........................................................................................................................
   1    9.990       9.507       9.019       8.528       8.032       7.532       7.028       6.519       6.006       5.488    
        4.965       4.437       3.903       3.365       2.821       2.271       1.715       1.154      0.5859      1.1554E-02
   2    9.990       9.507       9.019       8.528       8.032       7.532       7.028       6.519       6.006       5.488    
        4.965       4.437       3.903       3.365       2.821       2.271       1.715       1.154      0.5859      1.1554E-02
   3    9.990       9.507       9.019       8.528       8.032       7.532       7.028       6.519       6.006       5.488    
        4.965       4.437       3.903       3.365       2.821       2.271       1.715       1.154      0.5859      1.1554E-02
   4    9.990       9.507       9.019       8.528       8.032       7.532       7.028       6.519       6.006       5.488    
        4.965       4.437       3.903       3.365       2.821       2.271       1.715       1.154      0.5859      1.1554E-02
   5    9.990       9.507       9.019       8.528       8.032       7.532       7.028       6.519       6.006       5.488    
        4.965       4.437       3.903       3.365       2.821       2.271       1.715       1.154      0.5859      1.1554E-02
   6    9.990       9.507       9.019       8.528       8.032       7.532       7.028       6.519       6.006       5.488    
        4.965       4.437       3.903       3.365       2.821       2.271       1.715       1.154      0.5859      1.1554E-02
   7    9.990       9.507       9.019       8.528       8.032       7.532       7.028       6.519       6.006       5.488    
        4.965       4.437       3.903       3.365       2.821       2.271       1.715       1.154      0.5859      1.1554E-02
   8    9.990       9.507       9.019       8.528       8.032       7.532       7.028       6.519       6.006       5.488    
        4.965       4.437       3.903       3.365       2.821       2.271       1.715       1.154      0.5859      1.1554E-02
   9    9.990       9.507       9.019       8.528       8.032       7.532       7.028       6.519       6.006       5.488    
        4.965       4.437       3.903       3.365       2.821       2.271       1.715       1.154      0.5859      1.1554E-02
  10    9.990       9.507       9.019       8.528       8.032       7.532       7.028       6.519       6.006       5.488    
        4.965       4.437       3.903       3.365       2.821       2.271       1.715       1.154      0.5859      1.1554E-02

 HEAD WILL BE SAVED ON UNIT   51 AT END OF TIME STEP  92, STRESS PERIOD    2

 DRAWDOWN WILL BE SAVED ON UNIT   52 AT END OF TIME STEP  92, STRESS PERIOD    2
1
  VOLUMETRIC BUDGET FOR ENTIRE MODEL AT END OF TIME STEP 92 IN STRESS PERIOD   2
  ------------------------------------------------------------------------------

     CUMULATIVE VOLUMES      L**3       RATES FOR THIS TIME STEP      L**3/T
     ------------------                 ------------------------

           IN:                                      IN:
           ---                                      ---
             STORAGE =           0.2215               STORAGE =       2.4033E-03
       CONSTANT HEAD =           0.0000         CONSTANT HEAD =           0.0000
               WELLS =           0.0000                 WELLS =           0.0000
     HEAD DEP BOUNDS =       53726.3008       HEAD DEP BOUNDS =         577.7015

            TOTAL IN =       53726.5234              TOTAL IN =         577.7039

          OUT:                                     OUT:
          ----                                     ----
             STORAGE =           0.1672               STORAGE =       1.8311E-03
       CONSTANT HEAD =           0.0000         CONSTANT HEAD =           0.0000
               WELLS =           0.0000                 WELLS =           0.0000
     HEAD DEP BOUNDS =       53727.8672       HEAD DEP BOUNDS =         577.7195

           TOTAL OUT =       53728.0352             TOTAL OUT =         577.7213

            IN - OUT =          -1.5117              IN - OUT =      -1.7456E-02

 PERCENT DISCREPANCY =           0.00     PERCENT DISCREPANCY =           0.00






          TIME SUMMARY AT END OF TIME STEP  92 IN STRESS PERIOD    2
                    SECONDS     MINUTES      HOURS       DAYS        YEARS
                    -----------------------------------------------------------
   TIME STEP LENGTH  86400.      1440.0      24.000      1.0000     2.73785E-03
 STRESS PERIOD TIME 7.94880E+06 1.32480E+05  2208.0      92.000     0.25188    
         TOTAL TIME 8.03520E+06 1.33920E+05  2232.0      93.000     0.25462    
1
 
 SOLVING FOR HEAD 

 OUTPUT CONTROL FOR STRESS PERIOD    2   TIME STEP  93
    SAVE HEAD FOR ALL LAYERS
    SAVE DRAWDOWN FOR ALL LAYERS
    SAVE BUDGET
    PRINT HEAD FOR ALL LAYERS
    PRINT BUDGET
 UBDSV1 SAVING "         STORAGE" ON UNIT  53 AT TIME STEP 93, STRESS PERIOD   2
 UBDSV2 SAVING "   CONSTANT HEAD" ON UNIT  53 AT TIME STEP 93, STRESS PERIOD   2
 UBDSV1 SAVING "FLOW RIGHT FACE " ON UNIT  53 AT TIME STEP 93, STRESS PERIOD   2
 UBDSV1 SAVING "FLOW FRONT FACE " ON UNIT  53 AT TIME STEP 93, STRESS PERIOD   2
1
              HEAD IN LAYER   1 AT END OF TIME STEP  93 IN STRESS PERIOD    2
  ---------------------------------------------------------------------------

            1           2           3           4           5           6           7           8           9          10
           11          12          13          14          15          16          17          18          19          20
 ........................................................................................................................
   1    9.990       9.507       9.019       8.528       8.032       7.532       7.028       6.519       6.006       5.488    
        4.965       4.437       3.903       3.365       2.821       2.271       1.715       1.154      0.5859      1.1554E-02
   2    9.990       9.507       9.019       8.528       8.032       7.532       7.028       6.519       6.006       5.488    
        4.965       4.437       3.903       3.365       2.821       2.271       1.715       1.154      0.5859      1.1554E-02
   3    9.990       9.507       9.019       8.528       8.032       7.532       7.028       6.519       6.006       5.488    
        4.965       4.437       3.903       3.365       2.821       2.271       1.715       1.154      0.5859      1.1554E-02
   4    9.990       9.507       9.019       8.528       8.032       7.532       7.028       6.519       6.006       5.488    
        4.965       4.437       3.903       3.365       2.821       2.271       1.715       1.154      0.5859      1.1554E-02
   5    9.990       9.507       9.019       8.528       8.032       7.532       7.028       6.519       6.006       5.488    
        4.965       4.437       3.903       3.365       2.821       2.271       1.715       1.154      0.5859      1.1554E-02
   6    9.990       9.507       9.019       8.528       8.032       7.532       7.028       6.519       6.006       5.488    
        4.965       4.437       3.903       3.365       2.821       2.271       1.715       1.154      0.5859      1.1554E-02
   7    9.990       9.507       9.019       8.528       8.032       7.532       7.028       6.519       6.006       5.488    
        4.965       4.437       3.903       3.365       2.821       2.271       1.715       1.154      0.5859      1.1554E-02
   8    9.990       9.507       9.019       8.528       8.032       7.532       7.028       6.519       6.006       5.488    
        4.965       4.437       3.903       3.365       2.821       2.271       1.715       1.154      0.5859      1.1554E-02
   9    9.990       9.507       9.019       8.528       8.032       7.532       7.028       6.519       6.006       5.488    
        4.965       4.437       3.903       3.365       2.821       2.271       1.715       1.154      0.5859      1.1554E-02
  10    9.990       9.507       9.019       8.528       8.032       7.532       7.028       6.519       6.006       5.488    
        4.965       4.437       3.903       3.365       2.821       2.271       1.715       1.154      0.5859      1.1554E-02

 HEAD WILL BE SAVED ON UNIT   51 AT END OF TIME STEP  93, STRESS PERIOD    2

 DRAWDOWN WILL BE SAVED ON UNIT   52 AT END OF TIME STEP  93, STRESS PERIOD    2
1
  VOLUMETRIC BUDGET FOR ENTIRE MODEL AT END OF TIME STEP 93 IN STRESS PERIOD   2
  ------------------------------------------------------------------------------

     CUMULATIVE VOLUMES      L**3       RATES FOR THIS TIME STEP      L**3/T
     ------------------                 ------------------------

           IN:                                      IN:
           ---                                      ---
             STORAGE =           0.2239               STORAGE =       2.4033E-03
       CONSTANT HEAD =           0.0000         CONSTANT HEAD =           0.0000
               WELLS =           0.0000                 WELLS =           0.0000
     HEAD DEP BOUNDS =       54304.0039       HEAD DEP BOUNDS =         577.7015

            TOTAL IN =       54304.2266              TOTAL IN =         577.7039

          OUT:                                     OUT:
          ----                                     ----
             STORAGE =           0.1691               STORAGE =       1.8311E-03
       CONSTANT HEAD =           0.0000         CONSTANT HEAD =           0.0000
               WELLS =           0.0000                 WELLS =           0.0000
     HEAD DEP BOUNDS =       54305.5859       HEAD DEP BOUNDS =         577.7195

           TOTAL OUT =       54305.7539             TOTAL OUT =         577.7213

            IN - OUT =          -1.5273              IN - OUT =      -1.7456E-02

 PERCENT DISCREPANCY =           0.00     PERCENT DISCREPANCY =           0.00






          TIME SUMMARY AT END OF TIME STEP  93 IN STRESS PERIOD    2
                    SECONDS     MINUTES      HOURS       DAYS        YEARS
                    -----------------------------------------------------------
   TIME STEP LENGTH  86400.      1440.0      24.000      1.0000     2.73785E-03
 STRESS PERIOD TIME 8.03520E+06 1.33920E+05  2232.0      93.000     0.25462    
         TOTAL TIME 8.12160E+06 1.35360E+05  2256.0      94.000     0.25736    
1
 
 SOLVING FOR HEAD 

 OUTPUT CONTROL FOR STRESS PERIOD    2   TIME STEP  94
    SAVE HEAD FOR ALL LAYERS
    SAVE DRAWDOWN FOR ALL LAYERS
    SAVE BUDGET
    PRINT HEAD FOR ALL LAYERS
    PRINT BUDGET
 UBDSV1 SAVING "         STORAGE" ON UNIT  53 AT TIME STEP 94, STRESS PERIOD   2
 UBDSV2 SAVING "   CONSTANT HEAD" ON UNIT  53 AT TIME STEP 94, STRESS PERIOD   2
 UBDSV1 SAVING "FLOW RIGHT FACE " ON UNIT  53 AT TIME STEP 94, STRESS PERIOD   2
 UBDSV1 SAVING "FLOW FRONT FACE " ON UNIT  53 AT TIME STEP 94, STRESS PERIOD   2
1
              HEAD IN LAYER   1 AT END OF TIME STEP  94 IN STRESS PERIOD    2
  ---------------------------------------------------------------------------

            1           2           3           4           5           6           7           8           9          10
           11          12          13          14          15          16          17          18          19          20
 ........................................................................................................................
   1    9.990       9.507       9.019       8.528       8.032       7.532       7.028       6.519       6.006       5.488    
        4.965       4.437       3.903       3.365       2.821       2.271       1.715       1.154      0.5859      1.1554E-02
   2    9.990       9.507       9.019       8.528       8.032       7.532       7.028       6.519       6.006       5.488    
        4.965       4.437       3.903       3.365       2.821       2.271       1.715       1.154      0.5859      1.1554E-02
   3    9.990       9.507       9.019       8.528       8.032       7.532       7.028       6.519       6.006       5.488    
        4.965       4.437       3.903       3.365       2.821       2.271       1.715       1.154      0.5859      1.1554E-02
   4    9.990       9.507       9.019       8.528       8.032       7.532       7.028       6.519       6.006       5.488    
        4.965       4.437       3.903       3.365       2.821       2.271       1.715       1.154      0.5859      1.1554E-02
   5    9.990       9.507       9.019       8.528       8.032       7.532       7.028       6.519       6.006       5.488    
        4.965       4.437       3.903       3.365       2.821       2.271       1.715       1.154      0.5859      1.1554E-02
   6    9.990       9.507       9.019       8.528       8.032       7.532       7.028       6.519       6.006       5.488    
        4.965       4.437       3.903       3.365       2.821       2.271       1.715       1.154      0.5859      1.1554E-02
   7    9.990       9.507       9.019       8.528       8.032       7.532       7.028       6.519       6.006       5.488    
        4.965       4.437       3.903       3.365       2.821       2.271       1.715       1.154      0.5859      1.1554E-02
   8    9.990       9.507       9.019       8.528       8.032       7.532       7.028       6.519       6.006       5.488    
        4.965       4.437       3.903       3.365       2.821       2.271       1.715       1.154      0.5859      1.1554E-02
   9    9.990       9.507       9.019       8.528       8.032       7.532       7.028       6.519       6.006       5.488    
        4.965       4.437       3.903       3.365       2.821       2.271       1.715       1.154      0.5859      1.1554E-02
  10    9.990       9.507       9.019       8.528       8.032       7.532       7.028       6.519       6.006       5.488    
        4.965       4.437       3.903       3.365       2.821       2.271       1.715       1.154      0.5859      1.1554E-02

 HEAD WILL BE SAVED ON UNIT   51 AT END OF TIME STEP  94, STRESS PERIOD    2

 DRAWDOWN WILL BE SAVED ON UNIT   52 AT END OF TIME STEP  94, STRESS PERIOD    2
1
  VOLUMETRIC BUDGET FOR ENTIRE MODEL AT END OF TIME STEP 94 IN STRESS PERIOD   2
  ------------------------------------------------------------------------------

     CUMULATIVE VOLUMES      L**3       RATES FOR THIS TIME STEP      L**3/T
     ------------------                 ------------------------

           IN:                                      IN:
           ---                                      ---
             STORAGE =           0.2263               STORAGE =       2.4033E-03
       CONSTANT HEAD =           0.0000         CONSTANT HEAD =           0.0000
               WELLS =           0.0000                 WELLS =           0.0000
     HEAD DEP BOUNDS =       54881.7070       HEAD DEP BOUNDS =         577.7015

            TOTAL IN =       54881.9336              TOTAL IN =         577.7039

          OUT:                                     OUT:
          ----                                     ----
             STORAGE =           0.1709               STORAGE =       1.8311E-03
       CONSTANT HEAD =           0.0000         CONSTANT HEAD =           0.0000
               WELLS =           0.0000                 WELLS =           0.0000
     HEAD DEP BOUNDS =       54883.3047       HEAD DEP BOUNDS =         577.7195

           TOTAL OUT =       54883.4766             TOTAL OUT =         577.7213

            IN - OUT =          -1.5430              IN - OUT =      -1.7456E-02

 PERCENT DISCREPANCY =           0.00     PERCENT DISCREPANCY =           0.00






          TIME SUMMARY AT END OF TIME STEP  94 IN STRESS PERIOD    2
                    SECONDS     MINUTES      HOURS       DAYS        YEARS
                    -----------------------------------------------------------
   TIME STEP LENGTH  86400.      1440.0      24.000      1.0000     2.73785E-03
 STRESS PERIOD TIME 8.12160E+06 1.35360E+05  2256.0      94.000     0.25736    
         TOTAL TIME 8.20800E+06 1.36800E+05  2280.0      95.000     0.26010    
1
 
 SOLVING FOR HEAD 

 OUTPUT CONTROL FOR STRESS PERIOD    2   TIME STEP  95
    SAVE HEAD FOR ALL LAYERS
    SAVE DRAWDOWN FOR ALL LAYERS
    SAVE BUDGET
    PRINT HEAD FOR ALL LAYERS
    PRINT BUDGET
 UBDSV1 SAVING "         STORAGE" ON UNIT  53 AT TIME STEP 95, STRESS PERIOD   2
 UBDSV2 SAVING "   CONSTANT HEAD" ON UNIT  53 AT TIME STEP 95, STRESS PERIOD   2
 UBDSV1 SAVING "FLOW RIGHT FACE " ON UNIT  53 AT TIME STEP 95, STRESS PERIOD   2
 UBDSV1 SAVING "FLOW FRONT FACE " ON UNIT  53 AT TIME STEP 95, STRESS PERIOD   2
1
              HEAD IN LAYER   1 AT END OF TIME STEP  95 IN STRESS PERIOD    2
  ---------------------------------------------------------------------------

            1           2           3           4           5           6           7           8           9          10
           11          12          13          14          15          16          17          18          19          20
 ........................................................................................................................
   1    9.990       9.507       9.019       8.528       8.032       7.532       7.028       6.519       6.006       5.488    
        4.965       4.437       3.903       3.365       2.821       2.271       1.715       1.154      0.5859      1.1554E-02
   2    9.990       9.507       9.019       8.528       8.032       7.532       7.028       6.519       6.006       5.488    
        4.965       4.437       3.903       3.365       2.821       2.271       1.715       1.154      0.5859      1.1554E-02
   3    9.990       9.507       9.019       8.528       8.032       7.532       7.028       6.519       6.006       5.488    
        4.965       4.437       3.903       3.365       2.821       2.271       1.715       1.154      0.5859      1.1554E-02
   4    9.990       9.507       9.019       8.528       8.032       7.532       7.028       6.519       6.006       5.488    
        4.965       4.437       3.903       3.365       2.821       2.271       1.715       1.154      0.5859      1.1554E-02
   5    9.990       9.507       9.019       8.528       8.032       7.532       7.028       6.519       6.006       5.488    
        4.965       4.437       3.903       3.365       2.821       2.271       1.715       1.154      0.5859      1.1554E-02
   6    9.990       9.507       9.019       8.528       8.032       7.532       7.028       6.519       6.006       5.488    
        4.965       4.437       3.903       3.365       2.821       2.271       1.715       1.154      0.5859      1.1554E-02
   7    9.990       9.507       9.019       8.528       8.032       7.532       7.028       6.519       6.006       5.488    
        4.965       4.437       3.903       3.365       2.821       2.271       1.715       1.154      0.5859      1.1554E-02
   8    9.990       9.507       9.019       8.528       8.032       7.532       7.028       6.519       6.006       5.488    
        4.965       4.437       3.903       3.365       2.821       2.271       1.715       1.154      0.5859      1.1554E-02
   9    9.990       9.507       9.019       8.528       8.032       7.532       7.028       6.519       6.006       5.488    
        4.965       4.437       3.903       3.365       2.821       2.271       1.715       1.154      0.5859      1.1554E-02
  10    9.990       9.507       9.019       8.528       8.032       7.532       7.028       6.519       6.006       5.488    
        4.965       4.437       3.903       3.365       2.821       2.271       1.715       1.154      0.5859      1.1554E-02

 HEAD WILL BE SAVED ON UNIT   51 AT END OF TIME STEP  95, STRESS PERIOD    2

 DRAWDOWN WILL BE SAVED ON UNIT   52 AT END OF TIME STEP  95, STRESS PERIOD    2
1
  VOLUMETRIC BUDGET FOR ENTIRE MODEL AT END OF TIME STEP 95 IN STRESS PERIOD   2
  ------------------------------------------------------------------------------

     CUMULATIVE VOLUMES      L**3       RATES FOR THIS TIME STEP      L**3/T
     ------------------                 ------------------------

           IN:                                      IN:
           ---                                      ---
             STORAGE =           0.2287               STORAGE =       2.4033E-03
       CONSTANT HEAD =           0.0000         CONSTANT HEAD =           0.0000
               WELLS =           0.0000                 WELLS =           0.0000
     HEAD DEP BOUNDS =       55459.4102       HEAD DEP BOUNDS =         577.7015

            TOTAL IN =       55459.6406              TOTAL IN =         577.7039

          OUT:                                     OUT:
          ----                                     ----
             STORAGE =           0.1727               STORAGE =       1.8311E-03
       CONSTANT HEAD =           0.0000         CONSTANT HEAD =           0.0000
               WELLS =           0.0000                 WELLS =           0.0000
     HEAD DEP BOUNDS =       55461.0234       HEAD DEP BOUNDS =         577.7195

           TOTAL OUT =       55461.1953             TOTAL OUT =         577.7213

            IN - OUT =          -1.5547              IN - OUT =      -1.7456E-02

 PERCENT DISCREPANCY =           0.00     PERCENT DISCREPANCY =           0.00






          TIME SUMMARY AT END OF TIME STEP  95 IN STRESS PERIOD    2
                    SECONDS     MINUTES      HOURS       DAYS        YEARS
                    -----------------------------------------------------------
   TIME STEP LENGTH  86400.      1440.0      24.000      1.0000     2.73785E-03
 STRESS PERIOD TIME 8.20800E+06 1.36800E+05  2280.0      95.000     0.26010    
         TOTAL TIME 8.29440E+06 1.38240E+05  2304.0      96.000     0.26283    
1
 
 SOLVING FOR HEAD 

 OUTPUT CONTROL FOR STRESS PERIOD    2   TIME STEP  96
    SAVE HEAD FOR ALL LAYERS
    SAVE DRAWDOWN FOR ALL LAYERS
    SAVE BUDGET
    PRINT HEAD FOR ALL LAYERS
    PRINT BUDGET
 UBDSV1 SAVING "         STORAGE" ON UNIT  53 AT TIME STEP 96, STRESS PERIOD   2
 UBDSV2 SAVING "   CONSTANT HEAD" ON UNIT  53 AT TIME STEP 96, STRESS PERIOD   2
 UBDSV1 SAVING "FLOW RIGHT FACE " ON UNIT  53 AT TIME STEP 96, STRESS PERIOD   2
 UBDSV1 SAVING "FLOW FRONT FACE " ON UNIT  53 AT TIME STEP 96, STRESS PERIOD   2
1
              HEAD IN LAYER   1 AT END OF TIME STEP  96 IN STRESS PERIOD    2
  ---------------------------------------------------------------------------

            1           2           3           4           5           6           7           8           9          10
           11          12          13          14          15          16          17          18          19          20
 ........................................................................................................................
   1    9.990       9.507       9.019       8.528       8.032       7.532       7.028       6.519       6.006       5.488    
        4.965       4.437       3.903       3.365       2.821       2.271       1.715       1.154      0.5859      1.1554E-02
   2    9.990       9.507       9.019       8.528       8.032       7.532       7.028       6.519       6.006       5.488    
        4.965       4.437       3.903       3.365       2.821       2.271       1.715       1.154      0.5859      1.1554E-02
   3    9.990       9.507       9.019       8.528       8.032       7.532       7.028       6.519       6.006       5.488    
        4.965       4.437       3.903       3.365       2.821       2.271       1.715       1.154      0.5859      1.1554E-02
   4    9.990       9.507       9.019       8.528       8.032       7.532       7.028       6.519       6.006       5.488    
        4.965       4.437       3.903       3.365       2.821       2.271       1.715       1.154      0.5859      1.1554E-02
   5    9.990       9.507       9.019       8.528       8.032       7.532       7.028       6.519       6.006       5.488    
        4.965       4.437       3.903       3.365       2.821       2.271       1.715       1.154      0.5859      1.1554E-02
   6    9.990       9.507       9.019       8.528       8.032       7.532       7.028       6.519       6.006       5.488    
        4.965       4.437       3.903       3.365       2.821       2.271       1.715       1.154      0.5859      1.1554E-02
   7    9.990       9.507       9.019       8.528       8.032       7.532       7.028       6.519       6.006       5.488    
        4.965       4.437       3.903       3.365       2.821       2.271       1.715       1.154      0.5859      1.1554E-02
   8    9.990       9.507       9.019       8.528       8.032       7.532       7.028       6.519       6.006       5.488    
        4.965       4.437       3.903       3.365       2.821       2.271       1.715       1.154      0.5859      1.1554E-02
   9    9.990       9.507       9.019       8.528       8.032       7.532       7.028       6.519       6.006       5.488    
        4.965       4.437       3.903       3.365       2.821       2.271       1.715       1.154      0.5859      1.1554E-02
  10    9.990       9.507       9.019       8.528       8.032       7.532       7.028       6.519       6.006       5.488    
        4.965       4.437       3.903       3.365       2.821       2.271       1.715       1.154      0.5859      1.1554E-02

 HEAD WILL BE SAVED ON UNIT   51 AT END OF TIME STEP  96, STRESS PERIOD    2

 DRAWDOWN WILL BE SAVED ON UNIT   52 AT END OF TIME STEP  96, STRESS PERIOD    2
1
  VOLUMETRIC BUDGET FOR ENTIRE MODEL AT END OF TIME STEP 96 IN STRESS PERIOD   2
  ------------------------------------------------------------------------------

     CUMULATIVE VOLUMES      L**3       RATES FOR THIS TIME STEP      L**3/T
     ------------------                 ------------------------

           IN:                                      IN:
           ---                                      ---
             STORAGE =           0.2311               STORAGE =       2.4033E-03
       CONSTANT HEAD =           0.0000         CONSTANT HEAD =           0.0000
               WELLS =           0.0000                 WELLS =           0.0000
     HEAD DEP BOUNDS =       56037.1133       HEAD DEP BOUNDS =         577.7015

            TOTAL IN =       56037.3438              TOTAL IN =         577.7039

          OUT:                                     OUT:
          ----                                     ----
             STORAGE =           0.1746               STORAGE =       1.8311E-03
       CONSTANT HEAD =           0.0000         CONSTANT HEAD =           0.0000
               WELLS =           0.0000                 WELLS =           0.0000
     HEAD DEP BOUNDS =       56038.7422       HEAD DEP BOUNDS =         577.7195

           TOTAL OUT =       56038.9180             TOTAL OUT =         577.7213

            IN - OUT =          -1.5742              IN - OUT =      -1.7456E-02

 PERCENT DISCREPANCY =           0.00     PERCENT DISCREPANCY =           0.00






          TIME SUMMARY AT END OF TIME STEP  96 IN STRESS PERIOD    2
                    SECONDS     MINUTES      HOURS       DAYS        YEARS
                    -----------------------------------------------------------
   TIME STEP LENGTH  86400.      1440.0      24.000      1.0000     2.73785E-03
 STRESS PERIOD TIME 8.29440E+06 1.38240E+05  2304.0      96.000     0.26283    
         TOTAL TIME 8.38080E+06 1.39680E+05  2328.0      97.000     0.26557    
1
 
 SOLVING FOR HEAD 

 OUTPUT CONTROL FOR STRESS PERIOD    2   TIME STEP  97
    SAVE HEAD FOR ALL LAYERS
    SAVE DRAWDOWN FOR ALL LAYERS
    SAVE BUDGET
    PRINT HEAD FOR ALL LAYERS
    PRINT BUDGET
 UBDSV1 SAVING "         STORAGE" ON UNIT  53 AT TIME STEP 97, STRESS PERIOD   2
 UBDSV2 SAVING "   CONSTANT HEAD" ON UNIT  53 AT TIME STEP 97, STRESS PERIOD   2
 UBDSV1 SAVING "FLOW RIGHT FACE " ON UNIT  53 AT TIME STEP 97, STRESS PERIOD   2
 UBDSV1 SAVING "FLOW FRONT FACE " ON UNIT  53 AT TIME STEP 97, STRESS PERIOD   2
1
              HEAD IN LAYER   1 AT END OF TIME STEP  97 IN STRESS PERIOD    2
  ---------------------------------------------------------------------------

            1           2           3           4           5           6           7           8           9          10
           11          12          13          14          15          16          17          18          19          20
 ........................................................................................................................
   1    9.990       9.507       9.019       8.528       8.032       7.532       7.028       6.519       6.006       5.488    
        4.965       4.437       3.903       3.365       2.821       2.271       1.715       1.154      0.5859      1.1554E-02
   2    9.990       9.507       9.019       8.528       8.032       7.532       7.028       6.519       6.006       5.488    
        4.965       4.437       3.903       3.365       2.821       2.271       1.715       1.154      0.5859      1.1554E-02
   3    9.990       9.507       9.019       8.528       8.032       7.532       7.028       6.519       6.006       5.488    
        4.965       4.437       3.903       3.365       2.821       2.271       1.715       1.154      0.5859      1.1554E-02
   4    9.990       9.507       9.019       8.528       8.032       7.532       7.028       6.519       6.006       5.488    
        4.965       4.437       3.903       3.365       2.821       2.271       1.715       1.154      0.5859      1.1554E-02
   5    9.990       9.507       9.019       8.528       8.032       7.532       7.028       6.519       6.006       5.488    
        4.965       4.437       3.903       3.365       2.821       2.271       1.715       1.154      0.5859      1.1554E-02
   6    9.990       9.507       9.019       8.528       8.032       7.532       7.028       6.519       6.006       5.488    
        4.965       4.437       3.903       3.365       2.821       2.271       1.715       1.154      0.5859      1.1554E-02
   7    9.990       9.507       9.019       8.528       8.032       7.532       7.028       6.519       6.006       5.488    
        4.965       4.437       3.903       3.365       2.821       2.271       1.715       1.154      0.5859      1.1554E-02
   8    9.990       9.507       9.019       8.528       8.032       7.532       7.028       6.519       6.006       5.488    
        4.965       4.437       3.903       3.365       2.821       2.271       1.715       1.154      0.5859      1.1554E-02
   9    9.990       9.507       9.019       8.528       8.032       7.532       7.028       6.519       6.006       5.488    
        4.965       4.437       3.903       3.365       2.821       2.271       1.715       1.154      0.5859      1.1554E-02
  10    9.990       9.507       9.019       8.528       8.032       7.532       7.028       6.519       6.006       5.488    
        4.965       4.437       3.903       3.365       2.821       2.271       1.715       1.154      0.5859      1.1554E-02

 HEAD WILL BE SAVED ON UNIT   51 AT END OF TIME STEP  97, STRESS PERIOD    2

 DRAWDOWN WILL BE SAVED ON UNIT   52 AT END OF TIME STEP  97, STRESS PERIOD    2
1
  VOLUMETRIC BUDGET FOR ENTIRE MODEL AT END OF TIME STEP 97 IN STRESS PERIOD   2
  ------------------------------------------------------------------------------

     CUMULATIVE VOLUMES      L**3       RATES FOR THIS TIME STEP      L**3/T
     ------------------                 ------------------------

           IN:                                      IN:
           ---                                      ---
             STORAGE =           0.2335               STORAGE =       2.4033E-03
       CONSTANT HEAD =           0.0000         CONSTANT HEAD =           0.0000
               WELLS =           0.0000                 WELLS =           0.0000
     HEAD DEP BOUNDS =       56614.8164       HEAD DEP BOUNDS =         577.7015

            TOTAL IN =       56615.0508              TOTAL IN =         577.7039

          OUT:                                     OUT:
          ----                                     ----
             STORAGE =           0.1764               STORAGE =       1.8311E-03
       CONSTANT HEAD =           0.0000         CONSTANT HEAD =           0.0000
               WELLS =           0.0000                 WELLS =           0.0000
     HEAD DEP BOUNDS =       56616.4609       HEAD DEP BOUNDS =         577.7195

           TOTAL OUT =       56616.6367             TOTAL OUT =         577.7213

            IN - OUT =          -1.5859              IN - OUT =      -1.7456E-02

 PERCENT DISCREPANCY =           0.00     PERCENT DISCREPANCY =           0.00






          TIME SUMMARY AT END OF TIME STEP  97 IN STRESS PERIOD    2
                    SECONDS     MINUTES      HOURS       DAYS        YEARS
                    -----------------------------------------------------------
   TIME STEP LENGTH  86400.      1440.0      24.000      1.0000     2.73785E-03
 STRESS PERIOD TIME 8.38080E+06 1.39680E+05  2328.0      97.000     0.26557    
         TOTAL TIME 8.46720E+06 1.41120E+05  2352.0      98.000     0.26831    
1
 
 SOLVING FOR HEAD 

 OUTPUT CONTROL FOR STRESS PERIOD    2   TIME STEP  98
    SAVE HEAD FOR ALL LAYERS
    SAVE DRAWDOWN FOR ALL LAYERS
    SAVE BUDGET
    PRINT HEAD FOR ALL LAYERS
    PRINT BUDGET
 UBDSV1 SAVING "         STORAGE" ON UNIT  53 AT TIME STEP 98, STRESS PERIOD   2
 UBDSV2 SAVING "   CONSTANT HEAD" ON UNIT  53 AT TIME STEP 98, STRESS PERIOD   2
 UBDSV1 SAVING "FLOW RIGHT FACE " ON UNIT  53 AT TIME STEP 98, STRESS PERIOD   2
 UBDSV1 SAVING "FLOW FRONT FACE " ON UNIT  53 AT TIME STEP 98, STRESS PERIOD   2
1
              HEAD IN LAYER   1 AT END OF TIME STEP  98 IN STRESS PERIOD    2
  ---------------------------------------------------------------------------

            1           2           3           4           5           6           7           8           9          10
           11          12          13          14          15          16          17          18          19          20
 ........................................................................................................................
   1    9.990       9.507       9.019       8.528       8.032       7.532       7.028       6.519       6.006       5.488    
        4.965       4.437       3.903       3.365       2.821       2.271       1.715       1.154      0.5859      1.1554E-02
   2    9.990       9.507       9.019       8.528       8.032       7.532       7.028       6.519       6.006       5.488    
        4.965       4.437       3.903       3.365       2.821       2.271       1.715       1.154      0.5859      1.1554E-02
   3    9.990       9.507       9.019       8.528       8.032       7.532       7.028       6.519       6.006       5.488    
        4.965       4.437       3.903       3.365       2.821       2.271       1.715       1.154      0.5859      1.1554E-02
   4    9.990       9.507       9.019       8.528       8.032       7.532       7.028       6.519       6.006       5.488    
        4.965       4.437       3.903       3.365       2.821       2.271       1.715       1.154      0.5859      1.1554E-02
   5    9.990       9.507       9.019       8.528       8.032       7.532       7.028       6.519       6.006       5.488    
        4.965       4.437       3.903       3.365       2.821       2.271       1.715       1.154      0.5859      1.1554E-02
   6    9.990       9.507       9.019       8.528       8.032       7.532       7.028       6.519       6.006       5.488    
        4.965       4.437       3.903       3.365       2.821       2.271       1.715       1.154      0.5859      1.1554E-02
   7    9.990       9.507       9.019       8.528       8.032       7.532       7.028       6.519       6.006       5.488    
        4.965       4.437       3.903       3.365       2.821       2.271       1.715       1.154      0.5859      1.1554E-02
   8    9.990       9.507       9.019       8.528       8.032       7.532       7.028       6.519       6.006       5.488    
        4.965       4.437       3.903       3.365       2.821       2.271       1.715       1.154      0.5859      1.1554E-02
   9    9.990       9.507       9.019       8.528       8.032       7.532       7.028       6.519       6.006       5.488    
        4.965       4.437       3.903       3.365       2.821       2.271       1.715       1.154      0.5859      1.1554E-02
  10    9.990       9.507       9.019       8.528       8.032       7.532       7.028       6.519       6.006       5.488    
        4.965       4.437       3.903       3.365       2.821       2.271       1.715       1.154      0.5859      1.1554E-02

 HEAD WILL BE SAVED ON UNIT   51 AT END OF TIME STEP  98, STRESS PERIOD    2

 DRAWDOWN WILL BE SAVED ON UNIT   52 AT END OF TIME STEP  98, STRESS PERIOD    2
1
  VOLUMETRIC BUDGET FOR ENTIRE MODEL AT END OF TIME STEP 98 IN STRESS PERIOD   2
  ------------------------------------------------------------------------------

     CUMULATIVE VOLUMES      L**3       RATES FOR THIS TIME STEP      L**3/T
     ------------------                 ------------------------

           IN:                                      IN:
           ---                                      ---
             STORAGE =           0.2359               STORAGE =       2.4033E-03
       CONSTANT HEAD =           0.0000         CONSTANT HEAD =           0.0000
               WELLS =           0.0000                 WELLS =           0.0000
     HEAD DEP BOUNDS =       57192.5195       HEAD DEP BOUNDS =         577.7015

            TOTAL IN =       57192.7539              TOTAL IN =         577.7039

          OUT:                                     OUT:
          ----                                     ----
             STORAGE =           0.1782               STORAGE =       1.8311E-03
       CONSTANT HEAD =           0.0000         CONSTANT HEAD =           0.0000
               WELLS =           0.0000                 WELLS =           0.0000
     HEAD DEP BOUNDS =       57194.1797       HEAD DEP BOUNDS =         577.7195

           TOTAL OUT =       57194.3594             TOTAL OUT =         577.7213

            IN - OUT =          -1.6055              IN - OUT =      -1.7456E-02

 PERCENT DISCREPANCY =           0.00     PERCENT DISCREPANCY =           0.00






          TIME SUMMARY AT END OF TIME STEP  98 IN STRESS PERIOD    2
                    SECONDS     MINUTES      HOURS       DAYS        YEARS
                    -----------------------------------------------------------
   TIME STEP LENGTH  86400.      1440.0      24.000      1.0000     2.73785E-03
 STRESS PERIOD TIME 8.46720E+06 1.41120E+05  2352.0      98.000     0.26831    
         TOTAL TIME 8.55360E+06 1.42560E+05  2376.0      99.000     0.27105    
1
 
 SOLVING FOR HEAD 

 OUTPUT CONTROL FOR STRESS PERIOD    2   TIME STEP  99
    SAVE HEAD FOR ALL LAYERS
    SAVE DRAWDOWN FOR ALL LAYERS
    SAVE BUDGET
    PRINT HEAD FOR ALL LAYERS
    PRINT BUDGET
 UBDSV1 SAVING "         STORAGE" ON UNIT  53 AT TIME STEP 99, STRESS PERIOD   2
 UBDSV2 SAVING "   CONSTANT HEAD" ON UNIT  53 AT TIME STEP 99, STRESS PERIOD   2
 UBDSV1 SAVING "FLOW RIGHT FACE " ON UNIT  53 AT TIME STEP 99, STRESS PERIOD   2
 UBDSV1 SAVING "FLOW FRONT FACE " ON UNIT  53 AT TIME STEP 99, STRESS PERIOD   2
1
              HEAD IN LAYER   1 AT END OF TIME STEP  99 IN STRESS PERIOD    2
  ---------------------------------------------------------------------------

            1           2           3           4           5           6           7           8           9          10
           11          12          13          14          15          16          17          18          19          20
 ........................................................................................................................
   1    9.990       9.507       9.019       8.528       8.032       7.532       7.028       6.519       6.006       5.488    
        4.965       4.437       3.903       3.365       2.821       2.271       1.715       1.154      0.5859      1.1554E-02
   2    9.990       9.507       9.019       8.528       8.032       7.532       7.028       6.519       6.006       5.488    
        4.965       4.437       3.903       3.365       2.821       2.271       1.715       1.154      0.5859      1.1554E-02
   3    9.990       9.507       9.019       8.528       8.032       7.532       7.028       6.519       6.006       5.488    
        4.965       4.437       3.903       3.365       2.821       2.271       1.715       1.154      0.5859      1.1554E-02
   4    9.990       9.507       9.019       8.528       8.032       7.532       7.028       6.519       6.006       5.488    
        4.965       4.437       3.903       3.365       2.821       2.271       1.715       1.154      0.5859      1.1554E-02
   5    9.990       9.507       9.019       8.528       8.032       7.532       7.028       6.519       6.006       5.488    
        4.965       4.437       3.903       3.365       2.821       2.271       1.715       1.154      0.5859      1.1554E-02
   6    9.990       9.507       9.019       8.528       8.032       7.532       7.028       6.519       6.006       5.488    
        4.965       4.437       3.903       3.365       2.821       2.271       1.715       1.154      0.5859      1.1554E-02
   7    9.990       9.507       9.019       8.528       8.032       7.532       7.028       6.519       6.006       5.488    
        4.965       4.437       3.903       3.365       2.821       2.271       1.715       1.154      0.5859      1.1554E-02
   8    9.990       9.507       9.019       8.528       8.032       7.532       7.028       6.519       6.006       5.488    
        4.965       4.437       3.903       3.365       2.821       2.271       1.715       1.154      0.5859      1.1554E-02
   9    9.990       9.507       9.019       8.528       8.032       7.532       7.028       6.519       6.006       5.488    
        4.965       4.437       3.903       3.365       2.821       2.271       1.715       1.154      0.5859      1.1554E-02
  10    9.990       9.507       9.019       8.528       8.032       7.532       7.028       6.519       6.006       5.488    
        4.965       4.437       3.903       3.365       2.821       2.271       1.715       1.154      0.5859      1.1554E-02

 HEAD WILL BE SAVED ON UNIT   51 AT END OF TIME STEP  99, STRESS PERIOD    2

 DRAWDOWN WILL BE SAVED ON UNIT   52 AT END OF TIME STEP  99, STRESS PERIOD    2
1
  VOLUMETRIC BUDGET FOR ENTIRE MODEL AT END OF TIME STEP 99 IN STRESS PERIOD   2
  ------------------------------------------------------------------------------

     CUMULATIVE VOLUMES      L**3       RATES FOR THIS TIME STEP      L**3/T
     ------------------                 ------------------------

           IN:                                      IN:
           ---                                      ---
             STORAGE =           0.2383               STORAGE =       2.4033E-03
       CONSTANT HEAD =           0.0000         CONSTANT HEAD =           0.0000
               WELLS =           0.0000                 WELLS =           0.0000
     HEAD DEP BOUNDS =       57770.2227       HEAD DEP BOUNDS =         577.7015

            TOTAL IN =       57770.4609              TOTAL IN =         577.7039

          OUT:                                     OUT:
          ----                                     ----
             STORAGE =           0.1801               STORAGE =       1.8311E-03
       CONSTANT HEAD =           0.0000         CONSTANT HEAD =           0.0000
               WELLS =           0.0000                 WELLS =           0.0000
     HEAD DEP BOUNDS =       57771.8984       HEAD DEP BOUNDS =         577.7195

           TOTAL OUT =       57772.0781             TOTAL OUT =         577.7213

            IN - OUT =          -1.6172              IN - OUT =      -1.7456E-02

 PERCENT DISCREPANCY =           0.00     PERCENT DISCREPANCY =           0.00






          TIME SUMMARY AT END OF TIME STEP  99 IN STRESS PERIOD    2
                    SECONDS     MINUTES      HOURS       DAYS        YEARS
                    -----------------------------------------------------------
   TIME STEP LENGTH  86400.      1440.0      24.000      1.0000     2.73785E-03
 STRESS PERIOD TIME 8.55360E+06 1.42560E+05  2376.0      99.000     0.27105    
         TOTAL TIME 8.64000E+06 1.44000E+05  2400.0      100.00     0.27379    
1
 
 SOLVING FOR HEAD 

 OUTPUT CONTROL FOR STRESS PERIOD    2   TIME STEP 100
    SAVE HEAD FOR ALL LAYERS
    SAVE DRAWDOWN FOR ALL LAYERS
    SAVE BUDGET
    PRINT HEAD FOR ALL LAYERS
    PRINT BUDGET
 UBDSV1 SAVING "         STORAGE" ON UNIT  53 AT TIME STEP100, STRESS PERIOD   2
 UBDSV2 SAVING "   CONSTANT HEAD" ON UNIT  53 AT TIME STEP100, STRESS PERIOD   2
 UBDSV1 SAVING "FLOW RIGHT FACE " ON UNIT  53 AT TIME STEP100, STRESS PERIOD   2
 UBDSV1 SAVING "FLOW FRONT FACE " ON UNIT  53 AT TIME STEP100, STRESS PERIOD   2
1
              HEAD IN LAYER   1 AT END OF TIME STEP 100 IN STRESS PERIOD    2
  ---------------------------------------------------------------------------

            1           2           3           4           5           6           7           8           9          10
           11          12          13          14          15          16          17          18          19          20
 ........................................................................................................................
   1    9.990       9.507       9.019       8.528       8.032       7.532       7.028       6.519       6.006       5.488    
        4.965       4.437       3.903       3.365       2.821       2.271       1.715       1.154      0.5859      1.1554E-02
   2    9.990       9.507       9.019       8.528       8.032       7.532       7.028       6.519       6.006       5.488    
        4.965       4.437       3.903       3.365       2.821       2.271       1.715       1.154      0.5859      1.1554E-02
   3    9.990       9.507       9.019       8.528       8.032       7.532       7.028       6.519       6.006       5.488    
        4.965       4.437       3.903       3.365       2.821       2.271       1.715       1.154      0.5859      1.1554E-02
   4    9.990       9.507       9.019       8.528       8.032       7.532       7.028       6.519       6.006       5.488    
        4.965       4.437       3.903       3.365       2.821       2.271       1.715       1.154      0.5859      1.1554E-02
   5    9.990       9.507       9.019       8.528       8.032       7.532       7.028       6.519       6.006       5.488    
        4.965       4.437       3.903       3.365       2.821       2.271       1.715       1.154      0.5859      1.1554E-02
   6    9.990       9.507       9.019       8.528       8.032       7.532       7.028       6.519       6.006       5.488    
        4.965       4.437       3.903       3.365       2.821       2.271       1.715       1.154      0.5859      1.1554E-02
   7    9.990       9.507       9.019       8.528       8.032       7.532       7.028       6.519       6.006       5.488    
        4.965       4.437       3.903       3.365       2.821       2.271       1.715       1.154      0.5859      1.1554E-02
   8    9.990       9.507       9.019       8.528       8.032       7.532       7.028       6.519       6.006       5.488    
        4.965       4.437       3.903       3.365       2.821       2.271       1.715       1.154      0.5859      1.1554E-02
   9    9.990       9.507       9.019       8.528       8.032       7.532       7.028       6.519       6.006       5.488    
        4.965       4.437       3.903       3.365       2.821       2.271       1.715       1.154      0.5859      1.1554E-02
  10    9.990       9.507       9.019       8.528       8.032       7.532       7.028       6.519       6.006       5.488    
        4.965       4.437       3.903       3.365       2.821       2.271       1.715       1.154      0.5859      1.1554E-02

 HEAD WILL BE SAVED ON UNIT   51 AT END OF TIME STEP 100, STRESS PERIOD    2

 DRAWDOWN WILL BE SAVED ON UNIT   52 AT END OF TIME STEP 100, STRESS PERIOD    2
1
  VOLUMETRIC BUDGET FOR ENTIRE MODEL AT END OF TIME STEP100 IN STRESS PERIOD   2
  ------------------------------------------------------------------------------

     CUMULATIVE VOLUMES      L**3       RATES FOR THIS TIME STEP      L**3/T
     ------------------                 ------------------------

           IN:                                      IN:
           ---                                      ---
             STORAGE =           0.2407               STORAGE =       2.4033E-03
       CONSTANT HEAD =           0.0000         CONSTANT HEAD =           0.0000
               WELLS =           0.0000                 WELLS =           0.0000
     HEAD DEP BOUNDS =       58347.9258       HEAD DEP BOUNDS =         577.7015

            TOTAL IN =       58348.1680              TOTAL IN =         577.7039

          OUT:                                     OUT:
          ----                                     ----
             STORAGE =           0.1819               STORAGE =       1.8311E-03
       CONSTANT HEAD =           0.0000         CONSTANT HEAD =           0.0000
               WELLS =           0.0000                 WELLS =           0.0000
     HEAD DEP BOUNDS =       58349.6172       HEAD DEP BOUNDS =         577.7195

           TOTAL OUT =       58349.8008             TOTAL OUT =         577.7213

            IN - OUT =          -1.6328              IN - OUT =      -1.7456E-02

 PERCENT DISCREPANCY =           0.00     PERCENT DISCREPANCY =           0.00






          TIME SUMMARY AT END OF TIME STEP 100 IN STRESS PERIOD    2
                    SECONDS     MINUTES      HOURS       DAYS        YEARS
                    -----------------------------------------------------------
   TIME STEP LENGTH  86400.      1440.0      24.000      1.0000     2.73785E-03
 STRESS PERIOD TIME 8.64000E+06 1.44000E+05  2400.0      100.00     0.27379    
         TOTAL TIME 8.72640E+06 1.45440E+05  2424.0      101.00     0.27652    
1
1
                            STRESS PERIOD NO.    3, LENGTH =   100.0000    
                            -----------------------------------------------

                              NUMBER OF TIME STEPS =   100

                               MULTIPLIER FOR DELT =     1.000

                            INITIAL TIME STEP SIZE =   1.000000    

 WELL NO.  LAYER   ROW   COL   STRESS RATE         
 --------------------------------------------------
      1      1      5     10      -500.0    

      1 WELL 

 REUSING NON-PARAMETER GHB CELLS FROM LAST STRESS PERIOD

     20 GHB CELLS
 
 SOLVING FOR HEAD 

 OUTPUT CONTROL FOR STRESS PERIOD    3   TIME STEP   1
    SAVE HEAD FOR ALL LAYERS
    SAVE DRAWDOWN FOR ALL LAYERS
    SAVE BUDGET
    PRINT HEAD FOR ALL LAYERS
    PRINT BUDGET
 UBDSV1 SAVING "         STORAGE" ON UNIT  53 AT TIME STEP  1, STRESS PERIOD   3
 UBDSV2 SAVING "   CONSTANT HEAD" ON UNIT  53 AT TIME STEP  1, STRESS PERIOD   3
 UBDSV1 SAVING "FLOW RIGHT FACE " ON UNIT  53 AT TIME STEP  1, STRESS PERIOD   3
 UBDSV1 SAVING "FLOW FRONT FACE " ON UNIT  53 AT TIME STEP  1, STRESS PERIOD   3
1
              HEAD IN LAYER   1 AT END OF TIME STEP   1 IN STRESS PERIOD    3
  ---------------------------------------------------------------------------

            1           2           3           4           5           6           7           8           9          10
           11          12          13          14          15          16          17          18          19          20
 ........................................................................................................................
   1    9.990       9.507       9.019       8.528       8.032       7.532       7.028       6.519       6.006       5.488    
        4.965       4.437       3.903       3.365       2.821       2.271       1.715       1.154      0.5859      1.1554E-02
   2    9.990       9.507       9.019       8.528       8.032       7.532       7.028       6.519       6.006       5.488    
        4.965       4.437       3.903       3.365       2.821       2.271       1.715       1.154      0.5859      1.1554E-02
   3    9.990       9.507       9.019       8.528       8.032       7.532       7.028       6.519       6.005       5.487    
        4.964       4.436       3.903       3.365       2.821       2.271       1.715       1.154      0.5859      1.1554E-02
   4    9.990       9.507       9.019       8.528       8.032       7.532       7.028       6.518       5.998       5.462    
        4.957       4.435       3.903       3.365       2.821       2.271       1.715       1.154      0.5859      1.1554E-02
   5    9.990       9.507       9.019       8.528       8.032       7.532       7.026       6.505       5.908       4.813    
        4.866       4.422       3.901       3.364       2.821       2.271       1.715       1.154      0.5859      1.1554E-02
   6    9.990       9.507       9.019       8.528       8.032       7.532       7.028       6.518       5.998       5.462    
        4.957       4.435       3.903       3.365       2.821       2.271       1.715       1.154      0.5859      1.1554E-02
   7    9.990       9.507       9.019       8.528       8.032       7.532       7.028       6.519       6.005       5.487    
        4.964       4.436       3.903       3.365       2.821       2.271       1.715       1.154      0.5859      1.1554E-02
   8    9.990       9.507       9.019       8.528       8.032       7.532       7.028       6.519       6.006       5.488    
        4.965       4.437       3.903       3.365       2.821       2.271       1.715       1.154      0.5859      1.1554E-02
   9    9.990       9.507       9.019       8.528       8.032       7.532       7.028       6.519       6.006       5.488    
        4.965       4.437       3.903       3.365       2.821       2.271       1.715       1.154      0.5859      1.1554E-02
  10    9.990       9.507       9.019       8.528       8.032       7.532       7.028       6.519       6.006       5.488    
        4.965       4.437       3.903       3.365       2.821       2.271       1.715       1.154      0.5859      1.1554E-02

 HEAD WILL BE SAVED ON UNIT   51 AT END OF TIME STEP   1, STRESS PERIOD    3

 DRAWDOWN WILL BE SAVED ON UNIT   52 AT END OF TIME STEP   1, STRESS PERIOD    3
1
  VOLUMETRIC BUDGET FOR ENTIRE MODEL AT END OF TIME STEP  1 IN STRESS PERIOD   3
  ------------------------------------------------------------------------------

     CUMULATIVE VOLUMES      L**3       RATES FOR THIS TIME STEP      L**3/T
     ------------------                 ------------------------

           IN:                                      IN:
           ---                                      ---
             STORAGE =         500.2414               STORAGE =         500.0007
       CONSTANT HEAD =           0.0000         CONSTANT HEAD =           0.0000
               WELLS =           0.0000                 WELLS =           0.0000
     HEAD DEP BOUNDS =       58925.6289       HEAD DEP BOUNDS =         577.7015

            TOTAL IN =       59425.8711              TOTAL IN =        1077.7023

          OUT:                                     OUT:
          ----                                     ----
             STORAGE =           0.1828               STORAGE =       9.1553E-04
       CONSTANT HEAD =           0.0000         CONSTANT HEAD =           0.0000
               WELLS =         500.0000                 WELLS =         500.0000
     HEAD DEP BOUNDS =       58927.3359       HEAD DEP BOUNDS =         577.7195

           TOTAL OUT =       59427.5195             TOTAL OUT =        1077.7205

            IN - OUT =          -1.6484              IN - OUT =      -1.8188E-02

 PERCENT DISCREPANCY =           0.00     PERCENT DISCREPANCY =           0.00






          TIME SUMMARY AT END OF TIME STEP   1 IN STRESS PERIOD    3
                    SECONDS     MINUTES      HOURS       DAYS        YEARS
                    -----------------------------------------------------------
   TIME STEP LENGTH  86400.      1440.0      24.000      1.0000     2.73785E-03
 STRESS PERIOD TIME  86400.      1440.0      24.000      1.0000     2.73785E-03
         TOTAL TIME 8.81280E+06 1.46880E+05  2448.0      102.00     0.27926    
1
 
 SOLVING FOR HEAD 

 OUTPUT CONTROL FOR STRESS PERIOD    3   TIME STEP   2
    SAVE HEAD FOR ALL LAYERS
    SAVE DRAWDOWN FOR ALL LAYERS
    SAVE BUDGET
    PRINT HEAD FOR ALL LAYERS
    PRINT BUDGET
 UBDSV1 SAVING "         STORAGE" ON UNIT  53 AT TIME STEP  2, STRESS PERIOD   3
 UBDSV2 SAVING "   CONSTANT HEAD" ON UNIT  53 AT TIME STEP  2, STRESS PERIOD   3
 UBDSV1 SAVING "FLOW RIGHT FACE " ON UNIT  53 AT TIME STEP  2, STRESS PERIOD   3
 UBDSV1 SAVING "FLOW FRONT FACE " ON UNIT  53 AT TIME STEP  2, STRESS PERIOD   3
1
              HEAD IN LAYER   1 AT END OF TIME STEP   2 IN STRESS PERIOD    3
  ---------------------------------------------------------------------------

            1           2           3           4           5           6           7           8           9          10
           11          12          13          14          15          16          17          18          19          20
 ........................................................................................................................
   1    9.990       9.507       9.019       8.528       8.032       7.532       7.028       6.519       6.006       5.488    
        4.965       4.437       3.903       3.365       2.821       2.271       1.715       1.154      0.5859      1.1554E-02
   2    9.990       9.507       9.019       8.528       8.032       7.532       7.028       6.519       6.006       5.488    
        4.965       4.437       3.903       3.365       2.821       2.271       1.715       1.154      0.5859      1.1554E-02
   3    9.990       9.507       9.019       8.528       8.032       7.532       7.028       6.519       6.004       5.484    
        4.963       4.436       3.903       3.365       2.821       2.271       1.715       1.154      0.5859      1.1554E-02
   4    9.990       9.507       9.019       8.528       8.032       7.532       7.027       6.513       5.983       5.423    
        4.941       4.430       3.902       3.364       2.821       2.271       1.715       1.154      0.5859      1.1554E-02
   5    9.990       9.507       9.019       8.528       8.032       7.531       7.020       6.475       5.773       4.335    
        4.730       4.392       3.895       3.363       2.820       2.271       1.715       1.154      0.5859      1.1554E-02
   6    9.990       9.507       9.019       8.528       8.032       7.532       7.027       6.513       5.983       5.423    
        4.941       4.430       3.902       3.364       2.821       2.271       1.715       1.154      0.5859      1.1554E-02
   7    9.990       9.507       9.019       8.528       8.032       7.532       7.028       6.519       6.004       5.484    
        4.963       4.436       3.903       3.365       2.821       2.271       1.715       1.154      0.5859      1.1554E-02
   8    9.990       9.507       9.019       8.528       8.032       7.532       7.028       6.519       6.006       5.488    
        4.965       4.437       3.903       3.365       2.821       2.271       1.715       1.154      0.5859      1.1554E-02
   9    9.990       9.507       9.019       8.528       8.032       7.532       7.028       6.519       6.006       5.488    
        4.965       4.437       3.903       3.365       2.821       2.271       1.715       1.154      0.5859      1.1554E-02
  10    9.990       9.507       9.019       8.528       8.032       7.532       7.028       6.519       6.006       5.488    
        4.965       4.437       3.903       3.365       2.821       2.271       1.715       1.154      0.5859      1.1554E-02

 HEAD WILL BE SAVED ON UNIT   51 AT END OF TIME STEP   2, STRESS PERIOD    3

 DRAWDOWN WILL BE SAVED ON UNIT   52 AT END OF TIME STEP   2, STRESS PERIOD    3
1
  VOLUMETRIC BUDGET FOR ENTIRE MODEL AT END OF TIME STEP  2 IN STRESS PERIOD   3
  ------------------------------------------------------------------------------

     CUMULATIVE VOLUMES      L**3       RATES FOR THIS TIME STEP      L**3/T
     ------------------                 ------------------------

           IN:                                      IN:
           ---                                      ---
             STORAGE =        1000.2440               STORAGE =         500.0025
       CONSTANT HEAD =           0.0000         CONSTANT HEAD =           0.0000
               WELLS =           0.0000                 WELLS =           0.0000
     HEAD DEP BOUNDS =       59503.3320       HEAD DEP BOUNDS =         577.7017

            TOTAL IN =       60503.5742              TOTAL IN =        1077.7042

          OUT:                                     OUT:
          ----                                     ----
             STORAGE =           0.1836               STORAGE =       7.9346E-04
       CONSTANT HEAD =           0.0000         CONSTANT HEAD =           0.0000
               WELLS =        1000.0000                 WELLS =         500.0000
     HEAD DEP BOUNDS =       59505.0547       HEAD DEP BOUNDS =         577.7195

           TOTAL OUT =       60505.2383             TOTAL OUT =        1077.7202

            IN - OUT =          -1.6641              IN - OUT =      -1.5991E-02

 PERCENT DISCREPANCY =           0.00     PERCENT DISCREPANCY =           0.00






          TIME SUMMARY AT END OF TIME STEP   2 IN STRESS PERIOD    3
                    SECONDS     MINUTES      HOURS       DAYS        YEARS
                    -----------------------------------------------------------
   TIME STEP LENGTH  86400.      1440.0      24.000      1.0000     2.73785E-03
 STRESS PERIOD TIME 1.72800E+05  2880.0      48.000      2.0000     5.47570E-03
         TOTAL TIME 8.89920E+06 1.48320E+05  2472.0      103.00     0.28200    
1
 
 SOLVING FOR HEAD 

 OUTPUT CONTROL FOR STRESS PERIOD    3   TIME STEP   3
    SAVE HEAD FOR ALL LAYERS
    SAVE DRAWDOWN FOR ALL LAYERS
    SAVE BUDGET
    PRINT HEAD FOR ALL LAYERS
    PRINT BUDGET
 UBDSV1 SAVING "         STORAGE" ON UNIT  53 AT TIME STEP  3, STRESS PERIOD   3
 UBDSV2 SAVING "   CONSTANT HEAD" ON UNIT  53 AT TIME STEP  3, STRESS PERIOD   3
 UBDSV1 SAVING "FLOW RIGHT FACE " ON UNIT  53 AT TIME STEP  3, STRESS PERIOD   3
 UBDSV1 SAVING "FLOW FRONT FACE " ON UNIT  53 AT TIME STEP  3, STRESS PERIOD   3
1
              HEAD IN LAYER   1 AT END OF TIME STEP   3 IN STRESS PERIOD    3
  ---------------------------------------------------------------------------

            1           2           3           4           5           6           7           8           9          10
           11          12          13          14          15          16          17          18          19          20
 ........................................................................................................................
   1    9.990       9.507       9.019       8.528       8.032       7.532       7.028       6.519       6.006       5.488    
        4.965       4.437       3.903       3.365       2.821       2.271       1.715       1.154      0.5859      1.1554E-02
   2    9.990       9.507       9.019       8.528       8.032       7.532       7.028       6.519       6.006       5.487    
        4.964       4.436       3.903       3.365       2.821       2.271       1.715       1.154      0.5859      1.1554E-02
   3    9.990       9.507       9.019       8.528       8.032       7.532       7.028       6.518       6.002       5.481    
        4.961       4.435       3.903       3.365       2.821       2.271       1.715       1.154      0.5859      1.1554E-02
   4    9.990       9.507       9.019       8.528       8.032       7.532       7.024       6.505       5.960       5.380    
        4.919       4.422       3.900       3.364       2.820       2.271       1.715       1.154      0.5859      1.1554E-02
   5    9.990       9.507       9.019       8.528       8.032       7.529       7.010       6.434       5.629       3.981    
        4.584       4.350       3.885       3.361       2.820       2.271       1.715       1.154      0.5859      1.1554E-02
   6    9.990       9.507       9.019       8.528       8.032       7.532       7.024       6.505       5.960       5.380    
        4.919       4.422       3.900       3.364       2.820       2.271       1.715       1.154      0.5859      1.1554E-02
   7    9.990       9.507       9.019       8.528       8.032       7.532       7.028       6.518       6.002       5.481    
        4.961       4.435       3.903       3.365       2.821       2.271       1.715       1.154      0.5859      1.1554E-02
   8    9.990       9.507       9.019       8.528       8.032       7.532       7.028       6.519       6.006       5.487    
        4.964       4.436       3.903       3.365       2.821       2.271       1.715       1.154      0.5859      1.1554E-02
   9    9.990       9.507       9.019       8.528       8.032       7.532       7.028       6.519       6.006       5.488    
        4.965       4.437       3.903       3.365       2.821       2.271       1.715       1.154      0.5859      1.1554E-02
  10    9.990       9.507       9.019       8.528       8.032       7.532       7.028       6.519       6.006       5.488    
        4.965       4.437       3.903       3.365       2.821       2.271       1.715       1.154      0.5859      1.1554E-02

 HEAD WILL BE SAVED ON UNIT   51 AT END OF TIME STEP   3, STRESS PERIOD    3

 DRAWDOWN WILL BE SAVED ON UNIT   52 AT END OF TIME STEP   3, STRESS PERIOD    3
1
  VOLUMETRIC BUDGET FOR ENTIRE MODEL AT END OF TIME STEP  3 IN STRESS PERIOD   3
  ------------------------------------------------------------------------------

     CUMULATIVE VOLUMES      L**3       RATES FOR THIS TIME STEP      L**3/T
     ------------------                 ------------------------

           IN:                                      IN:
           ---                                      ---
             STORAGE =        1500.2465               STORAGE =         500.0025
       CONSTANT HEAD =           0.0000         CONSTANT HEAD =           0.0000
               WELLS =           0.0000                 WELLS =           0.0000
     HEAD DEP BOUNDS =       60081.0352       HEAD DEP BOUNDS =         577.7026

            TOTAL IN =       61581.2812              TOTAL IN =        1077.7051

          OUT:                                     OUT:
          ----                                     ----
             STORAGE =           0.1840               STORAGE =       4.2725E-04
       CONSTANT HEAD =           0.0000         CONSTANT HEAD =           0.0000
               WELLS =        1500.0000                 WELLS =         500.0000
     HEAD DEP BOUNDS =       60082.7734       HEAD DEP BOUNDS =         577.7194

           TOTAL OUT =       61582.9570             TOTAL OUT =        1077.7198

            IN - OUT =          -1.6758              IN - OUT =      -1.4771E-02

 PERCENT DISCREPANCY =           0.00     PERCENT DISCREPANCY =           0.00






          TIME SUMMARY AT END OF TIME STEP   3 IN STRESS PERIOD    3
                    SECONDS     MINUTES      HOURS       DAYS        YEARS
                    -----------------------------------------------------------
   TIME STEP LENGTH  86400.      1440.0      24.000      1.0000     2.73785E-03
 STRESS PERIOD TIME 2.59200E+05  4320.0      72.000      3.0000     8.21355E-03
         TOTAL TIME 8.98560E+06 1.49760E+05  2496.0      104.00     0.28474    
1
 
 SOLVING FOR HEAD 

 OUTPUT CONTROL FOR STRESS PERIOD    3   TIME STEP   4
    SAVE HEAD FOR ALL LAYERS
    SAVE DRAWDOWN FOR ALL LAYERS
    SAVE BUDGET
    PRINT HEAD FOR ALL LAYERS
    PRINT BUDGET
 UBDSV1 SAVING "         STORAGE" ON UNIT  53 AT TIME STEP  4, STRESS PERIOD   3
 UBDSV2 SAVING "   CONSTANT HEAD" ON UNIT  53 AT TIME STEP  4, STRESS PERIOD   3
 UBDSV1 SAVING "FLOW RIGHT FACE " ON UNIT  53 AT TIME STEP  4, STRESS PERIOD   3
 UBDSV1 SAVING "FLOW FRONT FACE " ON UNIT  53 AT TIME STEP  4, STRESS PERIOD   3
1
              HEAD IN LAYER   1 AT END OF TIME STEP   4 IN STRESS PERIOD    3
  ---------------------------------------------------------------------------

            1           2           3           4           5           6           7           8           9          10
           11          12          13          14          15          16          17          18          19          20
 ........................................................................................................................
   1    9.990       9.507       9.019       8.528       8.032       7.532       7.028       6.519       6.006       5.488    
        4.965       4.437       3.903       3.365       2.821       2.271       1.715       1.154      0.5859      1.1554E-02
   2    9.990       9.507       9.019       8.528       8.032       7.532       7.028       6.519       6.005       5.487    
        4.964       4.436       3.903       3.365       2.821       2.271       1.715       1.154      0.5859      1.1554E-02
   3    9.990       9.507       9.019       8.528       8.032       7.532       7.027       6.516       5.998       5.475    
        4.957       4.434       3.902       3.364       2.821       2.271       1.715       1.154      0.5859      1.1554E-02
   4    9.990       9.507       9.019       8.528       8.032       7.530       7.020       6.494       5.932       5.334    
        4.891       4.411       3.896       3.363       2.820       2.271       1.715       1.154      0.5859      1.1554E-02
   5    9.990       9.507       9.019       8.528       8.031       7.525       6.995       6.384       5.489       3.706    
        4.443       4.300       3.871       3.357       2.819       2.271       1.715       1.154      0.5859      1.1554E-02
   6    9.990       9.507       9.019       8.528       8.032       7.530       7.020       6.494       5.932       5.334    
        4.891       4.411       3.896       3.363       2.820       2.271       1.715       1.154      0.5859      1.1554E-02
   7    9.990       9.507       9.019       8.528       8.032       7.532       7.027       6.516       5.998       5.475    
        4.957       4.434       3.902       3.364       2.821       2.271       1.715       1.154      0.5859      1.1554E-02
   8    9.990       9.507       9.019       8.528       8.032       7.532       7.028       6.519       6.005       5.487    
        4.964       4.436       3.903       3.365       2.821       2.271       1.715       1.154      0.5859      1.1554E-02
   9    9.990       9.507       9.019       8.528       8.032       7.532       7.028       6.519       6.006       5.488    
        4.965       4.437       3.903       3.365       2.821       2.271       1.715       1.154      0.5859      1.1554E-02
  10    9.990       9.507       9.019       8.528       8.032       7.532       7.028       6.519       6.006       5.488    
        4.965       4.437       3.903       3.365       2.821       2.271       1.715       1.154      0.5859      1.1554E-02

 HEAD WILL BE SAVED ON UNIT   51 AT END OF TIME STEP   4, STRESS PERIOD    3

 DRAWDOWN WILL BE SAVED ON UNIT   52 AT END OF TIME STEP   4, STRESS PERIOD    3
1
  VOLUMETRIC BUDGET FOR ENTIRE MODEL AT END OF TIME STEP  4 IN STRESS PERIOD   3
  ------------------------------------------------------------------------------

     CUMULATIVE VOLUMES      L**3       RATES FOR THIS TIME STEP      L**3/T
     ------------------                 ------------------------

           IN:                                      IN:
           ---                                      ---
             STORAGE =        2000.2417               STORAGE =         499.9952
       CONSTANT HEAD =           0.0000         CONSTANT HEAD =           0.0000
               WELLS =           0.0000                 WELLS =           0.0000
     HEAD DEP BOUNDS =       60658.7383       HEAD DEP BOUNDS =         577.7048

            TOTAL IN =       62658.9805              TOTAL IN =        1077.7001

          OUT:                                     OUT:
          ----                                     ----
             STORAGE =           0.1843               STORAGE =       3.0518E-04
       CONSTANT HEAD =           0.0000         CONSTANT HEAD =           0.0000
               WELLS =        2000.0000                 WELLS =         500.0000
     HEAD DEP BOUNDS =       60660.4922       HEAD DEP BOUNDS =         577.7191

           TOTAL OUT =       62660.6758             TOTAL OUT =        1077.7195

            IN - OUT =          -1.6953              IN - OUT =      -1.9409E-02

 PERCENT DISCREPANCY =           0.00     PERCENT DISCREPANCY =           0.00






          TIME SUMMARY AT END OF TIME STEP   4 IN STRESS PERIOD    3
                    SECONDS     MINUTES      HOURS       DAYS        YEARS
                    -----------------------------------------------------------
   TIME STEP LENGTH  86400.      1440.0      24.000      1.0000     2.73785E-03
 STRESS PERIOD TIME 3.45600E+05  5760.0      96.000      4.0000     1.09514E-02
         TOTAL TIME 9.07200E+06 1.51200E+05  2520.0      105.00     0.28747    
1
 
 SOLVING FOR HEAD 

 OUTPUT CONTROL FOR STRESS PERIOD    3   TIME STEP   5
    SAVE HEAD FOR ALL LAYERS
    SAVE DRAWDOWN FOR ALL LAYERS
    SAVE BUDGET
    PRINT HEAD FOR ALL LAYERS
    PRINT BUDGET
 UBDSV1 SAVING "         STORAGE" ON UNIT  53 AT TIME STEP  5, STRESS PERIOD   3
 UBDSV2 SAVING "   CONSTANT HEAD" ON UNIT  53 AT TIME STEP  5, STRESS PERIOD   3
 UBDSV1 SAVING "FLOW RIGHT FACE " ON UNIT  53 AT TIME STEP  5, STRESS PERIOD   3
 UBDSV1 SAVING "FLOW FRONT FACE " ON UNIT  53 AT TIME STEP  5, STRESS PERIOD   3
1
              HEAD IN LAYER   1 AT END OF TIME STEP   5 IN STRESS PERIOD    3
  ---------------------------------------------------------------------------

            1           2           3           4           5           6           7           8           9          10
           11          12          13          14          15          16          17          18          19          20
 ........................................................................................................................
   1    9.990       9.507       9.019       8.528       8.032       7.532       7.028       6.519       6.006       5.488    
        4.965       4.437       3.903       3.365       2.821       2.271       1.715       1.154      0.5859      1.1554E-02
   2    9.990       9.507       9.019       8.528       8.032       7.532       7.028       6.519       6.005       5.486    
        4.964       4.436       3.903       3.365       2.821       2.271       1.715       1.154      0.5859      1.1554E-02
   3    9.990       9.507       9.019       8.528       8.032       7.532       7.026       6.514       5.994       5.469    
        4.953       4.431       3.901       3.364       2.820       2.271       1.715       1.154      0.5859      1.1554E-02
   4    9.990       9.507       9.019       8.528       8.031       7.529       7.015       6.479       5.901       5.288    
        4.859       4.396       3.890       3.361       2.820       2.271       1.715       1.154      0.5859      1.1554E-02
   5    9.990       9.507       9.019       8.527       8.029       7.520       6.977       6.331       5.359       3.487    
        4.311       4.246       3.853       3.352       2.818       2.270       1.715       1.154      0.5859      1.1554E-02
   6    9.990       9.507       9.019       8.528       8.031       7.529       7.015       6.479       5.901       5.288    
        4.859       4.396       3.890       3.361       2.820       2.271       1.715       1.154      0.5859      1.1554E-02
   7    9.990       9.507       9.019       8.528       8.032       7.532       7.026       6.514       5.994       5.469    
        4.953       4.431       3.901       3.364       2.820       2.271       1.715       1.154      0.5859      1.1554E-02
   8    9.990       9.507       9.019       8.528       8.032       7.532       7.028       6.519       6.005       5.486    
        4.964       4.436       3.903       3.365       2.821       2.271       1.715       1.154      0.5859      1.1554E-02
   9    9.990       9.507       9.019       8.528       8.032       7.532       7.028       6.519       6.006       5.488    
        4.965       4.437       3.903       3.365       2.821       2.271       1.715       1.154      0.5859      1.1554E-02
  10    9.990       9.507       9.019       8.528       8.032       7.532       7.028       6.519       6.006       5.488    
        4.965       4.437       3.903       3.365       2.821       2.271       1.715       1.154      0.5859      1.1554E-02

 HEAD WILL BE SAVED ON UNIT   51 AT END OF TIME STEP   5, STRESS PERIOD    3

 DRAWDOWN WILL BE SAVED ON UNIT   52 AT END OF TIME STEP   5, STRESS PERIOD    3
1
  VOLUMETRIC BUDGET FOR ENTIRE MODEL AT END OF TIME STEP  5 IN STRESS PERIOD   3
  ------------------------------------------------------------------------------

     CUMULATIVE VOLUMES      L**3       RATES FOR THIS TIME STEP      L**3/T
     ------------------                 ------------------------

           IN:                                      IN:
           ---                                      ---
             STORAGE =        2500.2354               STORAGE =         499.9936
       CONSTANT HEAD =           0.0000         CONSTANT HEAD =           0.0000
               WELLS =           0.0000                 WELLS =           0.0000
     HEAD DEP BOUNDS =       61236.4492       HEAD DEP BOUNDS =         577.7094

            TOTAL IN =       63736.6836              TOTAL IN =        1077.7030

          OUT:                                     OUT:
          ----                                     ----
             STORAGE =           0.1845               STORAGE =       1.8311E-04
       CONSTANT HEAD =           0.0000         CONSTANT HEAD =           0.0000
               WELLS =        2500.0000                 WELLS =         500.0000
     HEAD DEP BOUNDS =       61238.2109       HEAD DEP BOUNDS =         577.7185

           TOTAL OUT =       63738.3945             TOTAL OUT =        1077.7188

            IN - OUT =          -1.7109              IN - OUT =      -1.5747E-02

 PERCENT DISCREPANCY =           0.00     PERCENT DISCREPANCY =           0.00






          TIME SUMMARY AT END OF TIME STEP   5 IN STRESS PERIOD    3
                    SECONDS     MINUTES      HOURS       DAYS        YEARS
                    -----------------------------------------------------------
   TIME STEP LENGTH  86400.      1440.0      24.000      1.0000     2.73785E-03
 STRESS PERIOD TIME 4.32000E+05  7200.0      120.00      5.0000     1.36893E-02
         TOTAL TIME 9.15840E+06 1.52640E+05  2544.0      106.00     0.29021    
1
 
 SOLVING FOR HEAD 

 OUTPUT CONTROL FOR STRESS PERIOD    3   TIME STEP   6
    SAVE HEAD FOR ALL LAYERS
    SAVE DRAWDOWN FOR ALL LAYERS
    SAVE BUDGET
    PRINT HEAD FOR ALL LAYERS
    PRINT BUDGET
 UBDSV1 SAVING "         STORAGE" ON UNIT  53 AT TIME STEP  6, STRESS PERIOD   3
 UBDSV2 SAVING "   CONSTANT HEAD" ON UNIT  53 AT TIME STEP  6, STRESS PERIOD   3
 UBDSV1 SAVING "FLOW RIGHT FACE " ON UNIT  53 AT TIME STEP  6, STRESS PERIOD   3
 UBDSV1 SAVING "FLOW FRONT FACE " ON UNIT  53 AT TIME STEP  6, STRESS PERIOD   3
1
              HEAD IN LAYER   1 AT END OF TIME STEP   6 IN STRESS PERIOD    3
  ---------------------------------------------------------------------------

            1           2           3           4           5           6           7           8           9          10
           11          12          13          14          15          16          17          18          19          20
 ........................................................................................................................
   1    9.990       9.507       9.019       8.528       8.032       7.532       7.028       6.519       6.006       5.487    
        4.964       4.436       3.903       3.365       2.821       2.271       1.715       1.154      0.5859      1.1554E-02
   2    9.990       9.507       9.019       8.528       8.032       7.532       7.028       6.518       6.004       5.485    
        4.963       4.436       3.903       3.365       2.821       2.271       1.715       1.154      0.5859      1.1554E-02
   3    9.990       9.507       9.019       8.528       8.032       7.531       7.025       6.511       5.988       5.462    
        4.947       4.428       3.900       3.364       2.820       2.271       1.715       1.154      0.5859      1.1554E-02
   4    9.990       9.507       9.019       8.527       8.030       7.526       7.008       6.462       5.867       5.242    
        4.826       4.379       3.883       3.359       2.819       2.270       1.715       1.154      0.5859      1.1554E-02
   5    9.990       9.507       9.019       8.527       8.027       7.513       6.956       6.275       5.240       3.307    
        4.190       4.189       3.831       3.345       2.816       2.270       1.715       1.154      0.5858      1.1554E-02
   6    9.990       9.507       9.019       8.527       8.030       7.526       7.008       6.462       5.867       5.242    
        4.826       4.379       3.883       3.359       2.819       2.270       1.715       1.154      0.5859      1.1554E-02
   7    9.990       9.507       9.019       8.528       8.032       7.531       7.025       6.511       5.988       5.462    
        4.947       4.428       3.900       3.364       2.820       2.271       1.715       1.154      0.5859      1.1554E-02
   8    9.990       9.507       9.019       8.528       8.032       7.532       7.028       6.518       6.004       5.485    
        4.963       4.436       3.903       3.365       2.821       2.271       1.715       1.154      0.5859      1.1554E-02
   9    9.990       9.507       9.019       8.528       8.032       7.532       7.028       6.519       6.006       5.488    
        4.965       4.436       3.903       3.365       2.821       2.271       1.715       1.154      0.5859      1.1554E-02
  10    9.990       9.507       9.019       8.528       8.032       7.532       7.028       6.519       6.006       5.488    
        4.965       4.437       3.903       3.365       2.821       2.271       1.715       1.154      0.5859      1.1554E-02

 HEAD WILL BE SAVED ON UNIT   51 AT END OF TIME STEP   6, STRESS PERIOD    3

 DRAWDOWN WILL BE SAVED ON UNIT   52 AT END OF TIME STEP   6, STRESS PERIOD    3
1
  VOLUMETRIC BUDGET FOR ENTIRE MODEL AT END OF TIME STEP  6 IN STRESS PERIOD   3
  ------------------------------------------------------------------------------

     CUMULATIVE VOLUMES      L**3       RATES FOR THIS TIME STEP      L**3/T
     ------------------                 ------------------------

           IN:                                      IN:
           ---                                      ---
             STORAGE =        3000.2161               STORAGE =         499.9807
       CONSTANT HEAD =           0.0000         CONSTANT HEAD =           0.0000
               WELLS =           0.0000                 WELLS =           0.0000
     HEAD DEP BOUNDS =       61814.1680       HEAD DEP BOUNDS =         577.7184

            TOTAL IN =       64814.3828              TOTAL IN =        1077.6991

          OUT:                                     OUT:
          ----                                     ----
             STORAGE =           0.1846               STORAGE =       6.1035E-05
       CONSTANT HEAD =           0.0000         CONSTANT HEAD =           0.0000
               WELLS =        3000.0000                 WELLS =         500.0000
     HEAD DEP BOUNDS =       61815.9297       HEAD DEP BOUNDS =         577.7170

           TOTAL OUT =       64816.1133             TOTAL OUT =        1077.7170

            IN - OUT =          -1.7305              IN - OUT =      -1.7944E-02

 PERCENT DISCREPANCY =           0.00     PERCENT DISCREPANCY =           0.00






          TIME SUMMARY AT END OF TIME STEP   6 IN STRESS PERIOD    3
                    SECONDS     MINUTES      HOURS       DAYS        YEARS
                    -----------------------------------------------------------
   TIME STEP LENGTH  86400.      1440.0      24.000      1.0000     2.73785E-03
 STRESS PERIOD TIME 5.18400E+05  8640.0      144.00      6.0000     1.64271E-02
         TOTAL TIME 9.24480E+06 1.54080E+05  2568.0      107.00     0.29295    
1
 
 SOLVING FOR HEAD 

 OUTPUT CONTROL FOR STRESS PERIOD    3   TIME STEP   7
    SAVE HEAD FOR ALL LAYERS
    SAVE DRAWDOWN FOR ALL LAYERS
    SAVE BUDGET
    PRINT HEAD FOR ALL LAYERS
    PRINT BUDGET
 UBDSV1 SAVING "         STORAGE" ON UNIT  53 AT TIME STEP  7, STRESS PERIOD   3
 UBDSV2 SAVING "   CONSTANT HEAD" ON UNIT  53 AT TIME STEP  7, STRESS PERIOD   3
 UBDSV1 SAVING "FLOW RIGHT FACE " ON UNIT  53 AT TIME STEP  7, STRESS PERIOD   3
 UBDSV1 SAVING "FLOW FRONT FACE " ON UNIT  53 AT TIME STEP  7, STRESS PERIOD   3
1
              HEAD IN LAYER   1 AT END OF TIME STEP   7 IN STRESS PERIOD    3
  ---------------------------------------------------------------------------

            1           2           3           4           5           6           7           8           9          10
           11          12          13          14          15          16          17          18          19          20
 ........................................................................................................................
   1    9.990       9.507       9.019       8.528       8.032       7.532       7.028       6.519       6.006       5.487    
        4.964       4.436       3.903       3.365       2.821       2.271       1.715       1.154      0.5859      1.1554E-02
   2    9.990       9.507       9.019       8.528       8.032       7.532       7.027       6.518       6.003       5.484    
        4.962       4.435       3.903       3.364       2.821       2.271       1.715       1.154      0.5859      1.1554E-02
   3    9.990       9.507       9.019       8.528       8.032       7.530       7.023       6.507       5.982       5.454    
        4.940       4.424       3.898       3.363       2.820       2.271       1.715       1.154      0.5859      1.1554E-02
   4    9.990       9.507       9.019       8.527       8.029       7.523       6.999       6.442       5.833       5.197    
        4.791       4.359       3.875       3.355       2.818       2.270       1.715       1.154      0.5858      1.1554E-02
   5    9.990       9.507       9.019       8.526       8.024       7.504       6.933       6.219       5.132       3.155    
        4.080       4.133       3.808       3.337       2.813       2.269       1.715       1.154      0.5858      1.1554E-02
   6    9.990       9.507       9.019       8.527       8.029       7.523       6.999       6.442       5.833       5.197    
        4.791       4.359       3.875       3.355       2.818       2.270       1.715       1.154      0.5858      1.1554E-02
   7    9.990       9.507       9.019       8.528       8.032       7.530       7.023       6.507       5.982       5.454    
        4.940       4.424       3.898       3.363       2.820       2.271       1.715       1.154      0.5859      1.1554E-02
   8    9.990       9.507       9.019       8.528       8.032       7.532       7.027       6.518       6.003       5.484    
        4.962       4.435       3.903       3.364       2.821       2.271       1.715       1.154      0.5859      1.1554E-02
   9    9.990       9.507       9.019       8.528       8.032       7.532       7.028       6.519       6.006       5.487    
        4.964       4.436       3.903       3.365       2.821       2.271       1.715       1.154      0.5859      1.1554E-02
  10    9.990       9.507       9.019       8.528       8.032       7.532       7.028       6.519       6.006       5.488    
        4.965       4.437       3.903       3.365       2.821       2.271       1.715       1.154      0.5859      1.1554E-02

 HEAD WILL BE SAVED ON UNIT   51 AT END OF TIME STEP   7, STRESS PERIOD    3

 DRAWDOWN WILL BE SAVED ON UNIT   52 AT END OF TIME STEP   7, STRESS PERIOD    3
1
  VOLUMETRIC BUDGET FOR ENTIRE MODEL AT END OF TIME STEP  7 IN STRESS PERIOD   3
  ------------------------------------------------------------------------------

     CUMULATIVE VOLUMES      L**3       RATES FOR THIS TIME STEP      L**3/T
     ------------------                 ------------------------

           IN:                                      IN:
           ---                                      ---
             STORAGE =        3500.1760               STORAGE =         499.9601
       CONSTANT HEAD =           0.0000         CONSTANT HEAD =           0.0000
               WELLS =           0.0000                 WELLS =           0.0000
     HEAD DEP BOUNDS =       62391.9023       HEAD DEP BOUNDS =         577.7339

            TOTAL IN =       65892.0781              TOTAL IN =        1077.6940

          OUT:                                     OUT:
          ----                                     ----
             STORAGE =           0.1847               STORAGE =       1.4687E-04
       CONSTANT HEAD =           0.0000         CONSTANT HEAD =           0.0000
               WELLS =        3500.0000                 WELLS =         500.0000
     HEAD DEP BOUNDS =       62393.6445       HEAD DEP BOUNDS =         577.7141

           TOTAL OUT =       65893.8281             TOTAL OUT =        1077.7142

            IN - OUT =          -1.7500              IN - OUT =      -2.0264E-02

 PERCENT DISCREPANCY =           0.00     PERCENT DISCREPANCY =           0.00






          TIME SUMMARY AT END OF TIME STEP   7 IN STRESS PERIOD    3
                    SECONDS     MINUTES      HOURS       DAYS        YEARS
                    -----------------------------------------------------------
   TIME STEP LENGTH  86400.      1440.0      24.000      1.0000     2.73785E-03
 STRESS PERIOD TIME 6.04800E+05  10080.      168.00      7.0000     1.91650E-02
         TOTAL TIME 9.33120E+06 1.55520E+05  2592.0      108.00     0.29569    
1
 
 SOLVING FOR HEAD 

 OUTPUT CONTROL FOR STRESS PERIOD    3   TIME STEP   8
    SAVE HEAD FOR ALL LAYERS
    SAVE DRAWDOWN FOR ALL LAYERS
    SAVE BUDGET
    PRINT HEAD FOR ALL LAYERS
    PRINT BUDGET
 UBDSV1 SAVING "         STORAGE" ON UNIT  53 AT TIME STEP  8, STRESS PERIOD   3
 UBDSV2 SAVING "   CONSTANT HEAD" ON UNIT  53 AT TIME STEP  8, STRESS PERIOD   3
 UBDSV1 SAVING "FLOW RIGHT FACE " ON UNIT  53 AT TIME STEP  8, STRESS PERIOD   3
 UBDSV1 SAVING "FLOW FRONT FACE " ON UNIT  53 AT TIME STEP  8, STRESS PERIOD   3
1
              HEAD IN LAYER   1 AT END OF TIME STEP   8 IN STRESS PERIOD    3
  ---------------------------------------------------------------------------

            1           2           3           4           5           6           7           8           9          10
           11          12          13          14          15          16          17          18          19          20
 ........................................................................................................................
   1    9.990       9.507       9.019       8.528       8.032       7.532       7.028       6.519       6.005       5.487    
        4.964       4.436       3.903       3.365       2.821       2.271       1.715       1.154      0.5859      1.1554E-02
   2    9.990       9.507       9.019       8.528       8.032       7.532       7.027       6.517       6.002       5.483    
        4.961       4.434       3.902       3.364       2.820       2.271       1.715       1.154      0.5859      1.1554E-02
   3    9.990       9.507       9.019       8.528       8.031       7.529       7.020       6.502       5.974       5.445    
        4.933       4.419       3.896       3.362       2.820       2.271       1.715       1.154      0.5859      1.1554E-02
   4    9.990       9.507       9.019       8.527       8.028       7.518       6.989       6.421       5.797       5.154    
        4.755       4.338       3.864       3.351       2.816       2.270       1.715       1.154      0.5858      1.1554E-02
   5    9.990       9.507       9.019       8.525       8.021       7.494       6.908       6.165       5.034       3.024    
        3.981       4.077       3.783       3.327       2.810       2.268       1.715       1.154      0.5858      1.1554E-02
   6    9.990       9.507       9.019       8.527       8.028       7.518       6.989       6.421       5.797       5.154    
        4.755       4.338       3.864       3.351       2.816       2.270       1.715       1.154      0.5858      1.1554E-02
   7    9.990       9.507       9.019       8.528       8.031       7.529       7.020       6.502       5.974       5.445    
        4.933       4.419       3.896       3.362       2.820       2.271       1.715       1.154      0.5859      1.1554E-02
   8    9.990       9.507       9.019       8.528       8.032       7.532       7.027       6.517       6.002       5.483    
        4.961       4.434       3.902       3.364       2.820       2.271       1.715       1.154      0.5859      1.1554E-02
   9    9.990       9.507       9.019       8.528       8.032       7.532       7.028       6.519       6.005       5.487    
        4.964       4.436       3.903       3.365       2.821       2.271       1.715       1.154      0.5859      1.1554E-02
  10    9.990       9.507       9.019       8.528       8.032       7.532       7.028       6.519       6.006       5.488    
        4.965       4.437       3.903       3.365       2.821       2.271       1.715       1.154      0.5859      1.1554E-02

 HEAD WILL BE SAVED ON UNIT   51 AT END OF TIME STEP   8, STRESS PERIOD    3

 DRAWDOWN WILL BE SAVED ON UNIT   52 AT END OF TIME STEP   8, STRESS PERIOD    3
1
  VOLUMETRIC BUDGET FOR ENTIRE MODEL AT END OF TIME STEP  8 IN STRESS PERIOD   3
  ------------------------------------------------------------------------------

     CUMULATIVE VOLUMES      L**3       RATES FOR THIS TIME STEP      L**3/T
     ------------------                 ------------------------

           IN:                                      IN:
           ---                                      ---
             STORAGE =        4000.1099               STORAGE =         499.9339
       CONSTANT HEAD =           0.0000         CONSTANT HEAD =           0.0000
               WELLS =           0.0000                 WELLS =           0.0000
     HEAD DEP BOUNDS =       62969.6641       HEAD DEP BOUNDS =         577.7623

            TOTAL IN =       66969.7734              TOTAL IN =        1077.6962

          OUT:                                     OUT:
          ----                                     ----
             STORAGE =           0.1850               STORAGE =       2.5272E-04
       CONSTANT HEAD =           0.0000         CONSTANT HEAD =           0.0000
               WELLS =        4000.0000                 WELLS =         500.0000
     HEAD DEP BOUNDS =       62971.3516       HEAD DEP BOUNDS =         577.7087

           TOTAL OUT =       66971.5391             TOTAL OUT =        1077.7090

            IN - OUT =          -1.7656              IN - OUT =      -1.2817E-02

 PERCENT DISCREPANCY =           0.00     PERCENT DISCREPANCY =           0.00






          TIME SUMMARY AT END OF TIME STEP   8 IN STRESS PERIOD    3
                    SECONDS     MINUTES      HOURS       DAYS        YEARS
                    -----------------------------------------------------------
   TIME STEP LENGTH  86400.      1440.0      24.000      1.0000     2.73785E-03
 STRESS PERIOD TIME 6.91200E+05  11520.      192.00      8.0000     2.19028E-02
         TOTAL TIME 9.41760E+06 1.56960E+05  2616.0      109.00     0.29843    
1
 
 SOLVING FOR HEAD 

 OUTPUT CONTROL FOR STRESS PERIOD    3   TIME STEP   9
    SAVE HEAD FOR ALL LAYERS
    SAVE DRAWDOWN FOR ALL LAYERS
    SAVE BUDGET
    PRINT HEAD FOR ALL LAYERS
    PRINT BUDGET
 UBDSV1 SAVING "         STORAGE" ON UNIT  53 AT TIME STEP  9, STRESS PERIOD   3
 UBDSV2 SAVING "   CONSTANT HEAD" ON UNIT  53 AT TIME STEP  9, STRESS PERIOD   3
 UBDSV1 SAVING "FLOW RIGHT FACE " ON UNIT  53 AT TIME STEP  9, STRESS PERIOD   3
 UBDSV1 SAVING "FLOW FRONT FACE " ON UNIT  53 AT TIME STEP  9, STRESS PERIOD   3
1
              HEAD IN LAYER   1 AT END OF TIME STEP   9 IN STRESS PERIOD    3
  ---------------------------------------------------------------------------

            1           2           3           4           5           6           7           8           9          10
           11          12          13          14          15          16          17          18          19          20
 ........................................................................................................................
   1    9.990       9.507       9.019       8.528       8.032       7.532       7.028       6.519       6.005       5.487    
        4.964       4.436       3.903       3.365       2.821       2.271       1.715       1.154      0.5859      1.1554E-02
   2    9.990       9.507       9.019       8.528       8.032       7.532       7.026       6.516       6.000       5.481    
        4.959       4.433       3.902       3.364       2.820       2.271       1.715       1.154      0.5859      1.1554E-02
   3    9.990       9.507       9.019       8.527       8.031       7.528       7.017       6.496       5.966       5.435    
        4.925       4.414       3.893       3.360       2.819       2.270       1.715       1.154      0.5858      1.1554E-02
   4    9.990       9.507       9.019       8.526       8.026       7.513       6.977       6.399       5.762       5.111    
        4.719       4.315       3.853       3.346       2.814       2.269       1.715       1.154      0.5858      1.1554E-02
   5    9.990       9.507       9.018       8.523       8.017       7.484       6.882       6.112       4.945       2.910    
        3.890       4.022       3.756       3.316       2.806       2.267       1.714       1.153      0.5858      1.1553E-02
   6    9.990       9.507       9.019       8.526       8.026       7.513       6.977       6.399       5.762       5.111    
        4.719       4.315       3.853       3.346       2.814       2.269       1.715       1.154      0.5858      1.1554E-02
   7    9.990       9.507       9.019       8.527       8.031       7.528       7.017       6.496       5.966       5.435    
        4.925       4.414       3.893       3.360       2.819       2.270       1.715       1.154      0.5858      1.1554E-02
   8    9.990       9.507       9.019       8.528       8.032       7.532       7.026       6.516       6.000       5.481    
        4.959       4.433       3.902       3.364       2.820       2.271       1.715       1.154      0.5859      1.1554E-02
   9    9.990       9.507       9.019       8.528       8.032       7.532       7.028       6.519       6.005       5.487    
        4.964       4.436       3.903       3.365       2.821       2.271       1.715       1.154      0.5859      1.1554E-02
  10    9.990       9.507       9.019       8.528       8.032       7.532       7.028       6.519       6.006       5.488    
        4.965       4.437       3.903       3.365       2.821       2.271       1.715       1.154      0.5859      1.1554E-02

 HEAD WILL BE SAVED ON UNIT   51 AT END OF TIME STEP   9, STRESS PERIOD    3

 DRAWDOWN WILL BE SAVED ON UNIT   52 AT END OF TIME STEP   9, STRESS PERIOD    3
1
  VOLUMETRIC BUDGET FOR ENTIRE MODEL AT END OF TIME STEP  9 IN STRESS PERIOD   3
  ------------------------------------------------------------------------------

     CUMULATIVE VOLUMES      L**3       RATES FOR THIS TIME STEP      L**3/T
     ------------------                 ------------------------

           IN:                                      IN:
           ---                                      ---
             STORAGE =        4499.9937               STORAGE =         499.8836
       CONSTANT HEAD =           0.0000         CONSTANT HEAD =           0.0000
               WELLS =           0.0000                 WELLS =           0.0000
     HEAD DEP BOUNDS =       63547.4688       HEAD DEP BOUNDS =         577.8066

            TOTAL IN =       68047.4609              TOTAL IN =        1077.6902

          OUT:                                     OUT:
          ----                                     ----
             STORAGE =           0.1850               STORAGE =           0.0000
       CONSTANT HEAD =           0.0000         CONSTANT HEAD =           0.0000
               WELLS =        4500.0000                 WELLS =         500.0000
     HEAD DEP BOUNDS =       63549.0547       HEAD DEP BOUNDS =         577.7015

           TOTAL OUT =       68049.2422             TOTAL OUT =        1077.7015

            IN - OUT =          -1.7812              IN - OUT =      -1.1353E-02

 PERCENT DISCREPANCY =           0.00     PERCENT DISCREPANCY =           0.00






          TIME SUMMARY AT END OF TIME STEP   9 IN STRESS PERIOD    3
                    SECONDS     MINUTES      HOURS       DAYS        YEARS
                    -----------------------------------------------------------
   TIME STEP LENGTH  86400.      1440.0      24.000      1.0000     2.73785E-03
 STRESS PERIOD TIME 7.77600E+05  12960.      216.00      9.0000     2.46407E-02
         TOTAL TIME 9.50400E+06 1.58400E+05  2640.0      110.00     0.30116    
1
 
 SOLVING FOR HEAD 

 OUTPUT CONTROL FOR STRESS PERIOD    3   TIME STEP  10
    SAVE HEAD FOR ALL LAYERS
    SAVE DRAWDOWN FOR ALL LAYERS
    SAVE BUDGET
    PRINT HEAD FOR ALL LAYERS
    PRINT BUDGET
 UBDSV1 SAVING "         STORAGE" ON UNIT  53 AT TIME STEP 10, STRESS PERIOD   3
 UBDSV2 SAVING "   CONSTANT HEAD" ON UNIT  53 AT TIME STEP 10, STRESS PERIOD   3
 UBDSV1 SAVING "FLOW RIGHT FACE " ON UNIT  53 AT TIME STEP 10, STRESS PERIOD   3
 UBDSV1 SAVING "FLOW FRONT FACE " ON UNIT  53 AT TIME STEP 10, STRESS PERIOD   3
1
              HEAD IN LAYER   1 AT END OF TIME STEP  10 IN STRESS PERIOD    3
  ---------------------------------------------------------------------------

            1           2           3           4           5           6           7           8           9          10
           11          12          13          14          15          16          17          18          19          20
 ........................................................................................................................
   1    9.990       9.507       9.019       8.528       8.032       7.532       7.028       6.519       6.005       5.487    
        4.964       4.436       3.903       3.365       2.821       2.271       1.715       1.154      0.5859      1.1554E-02
   2    9.990       9.507       9.019       8.528       8.032       7.531       7.026       6.515       5.999       5.479    
        4.957       4.432       3.901       3.364       2.820       2.271       1.715       1.154      0.5859      1.1554E-02
   3    9.990       9.507       9.019       8.527       8.030       7.526       7.014       6.490       5.957       5.425    
        4.915       4.408       3.889       3.359       2.818       2.270       1.715       1.154      0.5858      1.1554E-02
   4    9.990       9.507       9.018       8.525       8.023       7.507       6.965       6.376       5.727       5.070    
        4.684       4.292       3.840       3.340       2.812       2.268       1.714       1.153      0.5858      1.1553E-02
   5    9.990       9.506       9.018       8.522       8.012       7.472       6.856       6.061       4.864       2.809    
        3.807       3.970       3.729       3.304       2.801       2.265       1.714       1.153      0.5857      1.1552E-02
   6    9.990       9.507       9.018       8.525       8.023       7.507       6.965       6.376       5.727       5.070    
        4.684       4.292       3.840       3.340       2.812       2.268       1.714       1.153      0.5858      1.1553E-02
   7    9.990       9.507       9.019       8.527       8.030       7.526       7.014       6.490       5.957       5.425    
        4.915       4.408       3.889       3.359       2.818       2.270       1.715       1.154      0.5858      1.1554E-02
   8    9.990       9.507       9.019       8.528       8.032       7.531       7.026       6.515       5.999       5.479    
        4.957       4.432       3.901       3.364       2.820       2.271       1.715       1.154      0.5859      1.1554E-02
   9    9.990       9.507       9.019       8.528       8.032       7.532       7.028       6.519       6.005       5.487    
        4.964       4.436       3.903       3.365       2.821       2.271       1.715       1.154      0.5859      1.1554E-02
  10    9.990       9.507       9.019       8.528       8.032       7.532       7.028       6.519       6.006       5.488    
        4.965       4.437       3.903       3.365       2.821       2.271       1.715       1.154      0.5859      1.1554E-02

 HEAD WILL BE SAVED ON UNIT   51 AT END OF TIME STEP  10, STRESS PERIOD    3

 DRAWDOWN WILL BE SAVED ON UNIT   52 AT END OF TIME STEP  10, STRESS PERIOD    3
1
  VOLUMETRIC BUDGET FOR ENTIRE MODEL AT END OF TIME STEP 10 IN STRESS PERIOD   3
  ------------------------------------------------------------------------------

     CUMULATIVE VOLUMES      L**3       RATES FOR THIS TIME STEP      L**3/T
     ------------------                 ------------------------

           IN:                                      IN:
           ---                                      ---
             STORAGE =        4999.8115               STORAGE =         499.8181
       CONSTANT HEAD =           0.0000         CONSTANT HEAD =           0.0000
               WELLS =           0.0000                 WELLS =           0.0000
     HEAD DEP BOUNDS =       64125.3281       HEAD DEP BOUNDS =         577.8593

            TOTAL IN =       69125.1406              TOTAL IN =        1077.6774

          OUT:                                     OUT:
          ----                                     ----
             STORAGE =           0.1852               STORAGE =       1.9836E-04
       CONSTANT HEAD =           0.0000         CONSTANT HEAD =           0.0000
               WELLS =        5000.0000                 WELLS =         500.0000
     HEAD DEP BOUNDS =       64126.7461       HEAD DEP BOUNDS =         577.6895

           TOTAL OUT =       69126.9297             TOTAL OUT =        1077.6897

            IN - OUT =          -1.7891              IN - OUT =      -1.2329E-02

 PERCENT DISCREPANCY =           0.00     PERCENT DISCREPANCY =           0.00






          TIME SUMMARY AT END OF TIME STEP  10 IN STRESS PERIOD    3
                    SECONDS     MINUTES      HOURS       DAYS        YEARS
                    -----------------------------------------------------------
   TIME STEP LENGTH  86400.      1440.0      24.000      1.0000     2.73785E-03
 STRESS PERIOD TIME 8.64000E+05  14400.      240.00      10.000     2.73785E-02
         TOTAL TIME 9.59040E+06 1.59840E+05  2664.0      111.00     0.30390    
1
 
 SOLVING FOR HEAD 

 OUTPUT CONTROL FOR STRESS PERIOD    3   TIME STEP  11
    SAVE HEAD FOR ALL LAYERS
    SAVE DRAWDOWN FOR ALL LAYERS
    SAVE BUDGET
    PRINT HEAD FOR ALL LAYERS
    PRINT BUDGET
 UBDSV1 SAVING "         STORAGE" ON UNIT  53 AT TIME STEP 11, STRESS PERIOD   3
 UBDSV2 SAVING "   CONSTANT HEAD" ON UNIT  53 AT TIME STEP 11, STRESS PERIOD   3
 UBDSV1 SAVING "FLOW RIGHT FACE " ON UNIT  53 AT TIME STEP 11, STRESS PERIOD   3
 UBDSV1 SAVING "FLOW FRONT FACE " ON UNIT  53 AT TIME STEP 11, STRESS PERIOD   3
1
              HEAD IN LAYER   1 AT END OF TIME STEP  11 IN STRESS PERIOD    3
  ---------------------------------------------------------------------------

            1           2           3           4           5           6           7           8           9          10
           11          12          13          14          15          16          17          18          19          20
 ........................................................................................................................
   1    9.990       9.507       9.019       8.528       8.032       7.532       7.028       6.518       6.004       5.486    
        4.963       4.436       3.903       3.364       2.821       2.271       1.715       1.154      0.5859      1.1554E-02
   2    9.990       9.507       9.019       8.528       8.032       7.531       7.025       6.513       5.997       5.477    
        4.955       4.431       3.900       3.363       2.820       2.271       1.715       1.154      0.5859      1.1554E-02
   3    9.990       9.507       9.019       8.527       8.029       7.524       7.010       6.483       5.947       5.414    
        4.906       4.401       3.885       3.357       2.817       2.270       1.715       1.154      0.5858      1.1554E-02
   4    9.990       9.506       9.018       8.524       8.020       7.500       6.951       6.352       5.692       5.030    
        4.649       4.268       3.826       3.333       2.809       2.267       1.714       1.153      0.5858      1.1552E-02
   5    9.990       9.506       9.017       8.519       8.007       7.459       6.829       6.013       4.789       2.718    
        3.732       3.920       3.702       3.291       2.796       2.263       1.713       1.153      0.5857      1.1551E-02
   6    9.990       9.506       9.018       8.524       8.020       7.500       6.951       6.352       5.692       5.030    
        4.649       4.268       3.826       3.333       2.809       2.267       1.714       1.153      0.5858      1.1552E-02
   7    9.990       9.507       9.019       8.527       8.029       7.524       7.010       6.483       5.947       5.414    
        4.906       4.401       3.885       3.357       2.817       2.270       1.715       1.154      0.5858      1.1554E-02
   8    9.990       9.507       9.019       8.528       8.032       7.531       7.025       6.513       5.997       5.477    
        4.955       4.431       3.900       3.363       2.820       2.271       1.715       1.154      0.5859      1.1554E-02
   9    9.990       9.507       9.019       8.528       8.032       7.532       7.028       6.518       6.005       5.486    
        4.963       4.436       3.903       3.364       2.821       2.271       1.715       1.154      0.5859      1.1554E-02
  10    9.990       9.507       9.019       8.528       8.032       7.532       7.028       6.519       6.006       5.488    
        4.965       4.436       3.903       3.365       2.821       2.271       1.715       1.154      0.5859      1.1554E-02

 HEAD WILL BE SAVED ON UNIT   51 AT END OF TIME STEP  11, STRESS PERIOD    3

 DRAWDOWN WILL BE SAVED ON UNIT   52 AT END OF TIME STEP  11, STRESS PERIOD    3
1
  VOLUMETRIC BUDGET FOR ENTIRE MODEL AT END OF TIME STEP 11 IN STRESS PERIOD   3
  ------------------------------------------------------------------------------

     CUMULATIVE VOLUMES      L**3       RATES FOR THIS TIME STEP      L**3/T
     ------------------                 ------------------------

           IN:                                      IN:
           ---                                      ---
             STORAGE =        5499.5371               STORAGE =         499.7256
       CONSTANT HEAD =           0.0000         CONSTANT HEAD =           0.0000
               WELLS =           0.0000                 WELLS =           0.0000
     HEAD DEP BOUNDS =       64703.2695       HEAD DEP BOUNDS =         577.9420

            TOTAL IN =       70202.8047              TOTAL IN =        1077.6676

          OUT:                                     OUT:
          ----                                     ----
             STORAGE =           0.1852               STORAGE =           0.0000
       CONSTANT HEAD =           0.0000         CONSTANT HEAD =           0.0000
               WELLS =        5500.0000                 WELLS =         500.0000
     HEAD DEP BOUNDS =       64704.4180       HEAD DEP BOUNDS =         577.6724

           TOTAL OUT =       70204.6016             TOTAL OUT =        1077.6724

            IN - OUT =          -1.7969              IN - OUT =      -4.7607E-03

 PERCENT DISCREPANCY =           0.00     PERCENT DISCREPANCY =           0.00






          TIME SUMMARY AT END OF TIME STEP  11 IN STRESS PERIOD    3
                    SECONDS     MINUTES      HOURS       DAYS        YEARS
                    -----------------------------------------------------------
   TIME STEP LENGTH  86400.      1440.0      24.000      1.0000     2.73785E-03
 STRESS PERIOD TIME 9.50400E+05  15840.      264.00      11.000     3.01164E-02
         TOTAL TIME 9.67680E+06 1.61280E+05  2688.0      112.00     0.30664    
1
 
 SOLVING FOR HEAD 

 OUTPUT CONTROL FOR STRESS PERIOD    3   TIME STEP  12
    SAVE HEAD FOR ALL LAYERS
    SAVE DRAWDOWN FOR ALL LAYERS
    SAVE BUDGET
    PRINT HEAD FOR ALL LAYERS
    PRINT BUDGET
 UBDSV1 SAVING "         STORAGE" ON UNIT  53 AT TIME STEP 12, STRESS PERIOD   3
 UBDSV2 SAVING "   CONSTANT HEAD" ON UNIT  53 AT TIME STEP 12, STRESS PERIOD   3
 UBDSV1 SAVING "FLOW RIGHT FACE " ON UNIT  53 AT TIME STEP 12, STRESS PERIOD   3
 UBDSV1 SAVING "FLOW FRONT FACE " ON UNIT  53 AT TIME STEP 12, STRESS PERIOD   3
1
              HEAD IN LAYER   1 AT END OF TIME STEP  12 IN STRESS PERIOD    3
  ---------------------------------------------------------------------------

            1           2           3           4           5           6           7           8           9          10
           11          12          13          14          15          16          17          18          19          20
 ........................................................................................................................
   1    9.990       9.507       9.019       8.528       8.032       7.532       7.027       6.518       6.004       5.486    
        4.963       4.435       3.903       3.364       2.820       2.271       1.715       1.154      0.5859      1.1554E-02
   2    9.990       9.507       9.019       8.528       8.031       7.530       7.024       6.511       5.994       5.474    
        4.953       4.429       3.899       3.363       2.820       2.271       1.715       1.154      0.5858      1.1554E-02
   3    9.990       9.507       9.019       8.526       8.028       7.521       7.005       6.476       5.937       5.402    
        4.896       4.393       3.881       3.354       2.816       2.269       1.715       1.154      0.5858      1.1553E-02
   4    9.990       9.506       9.017       8.522       8.017       7.493       6.937       6.328       5.658       4.991    
        4.614       4.243       3.812       3.326       2.806       2.266       1.714       1.153      0.5857      1.1551E-02
   5    9.990       9.506       9.016       8.517       8.001       7.446       6.803       5.966       4.721       2.637    
        3.662       3.872       3.674       3.278       2.790       2.261       1.712       1.153      0.5856      1.1549E-02
   6    9.990       9.506       9.017       8.522       8.017       7.493       6.937       6.328       5.658       4.991    
        4.614       4.243       3.812       3.326       2.806       2.266       1.714       1.153      0.5857      1.1551E-02
   7    9.990       9.507       9.019       8.526       8.028       7.521       7.005       6.476       5.937       5.402    
        4.896       4.393       3.881       3.354       2.816       2.269       1.715       1.154      0.5858      1.1553E-02
   8    9.990       9.507       9.019       8.528       8.031       7.530       7.024       6.511       5.994       5.474    
        4.953       4.429       3.899       3.363       2.820       2.271       1.715       1.154      0.5858      1.1554E-02
   9    9.990       9.507       9.019       8.528       8.032       7.532       7.027       6.518       6.004       5.486    
        4.963       4.435       3.903       3.364       2.821       2.271       1.715       1.154      0.5859      1.1554E-02
  10    9.990       9.507       9.019       8.528       8.032       7.532       7.028       6.519       6.006       5.487    
        4.964       4.436       3.903       3.365       2.821       2.271       1.715       1.154      0.5859      1.1554E-02

 HEAD WILL BE SAVED ON UNIT   51 AT END OF TIME STEP  12, STRESS PERIOD    3

 DRAWDOWN WILL BE SAVED ON UNIT   52 AT END OF TIME STEP  12, STRESS PERIOD    3
1
  VOLUMETRIC BUDGET FOR ENTIRE MODEL AT END OF TIME STEP 12 IN STRESS PERIOD   3
  ------------------------------------------------------------------------------

     CUMULATIVE VOLUMES      L**3       RATES FOR THIS TIME STEP      L**3/T
     ------------------                 ------------------------

           IN:                                      IN:
           ---                                      ---
             STORAGE =        5999.1362               STORAGE =         499.5991
       CONSTANT HEAD =           0.0000         CONSTANT HEAD =           0.0000
               WELLS =           0.0000                 WELLS =           0.0000
     HEAD DEP BOUNDS =       65281.3125       HEAD DEP BOUNDS =         578.0436

            TOTAL IN =       71280.4453              TOTAL IN =        1077.6428

          OUT:                                     OUT:
          ----                                     ----
             STORAGE =           0.1855               STORAGE =       3.3045E-04
       CONSTANT HEAD =           0.0000         CONSTANT HEAD =           0.0000
               WELLS =        6000.0000                 WELLS =         500.0000
     HEAD DEP BOUNDS =       65282.0664       HEAD DEP BOUNDS =         577.6491

           TOTAL OUT =       71282.2500             TOTAL OUT =        1077.6494

            IN - OUT =          -1.8047              IN - OUT =      -6.5918E-03

 PERCENT DISCREPANCY =           0.00     PERCENT DISCREPANCY =           0.00






          TIME SUMMARY AT END OF TIME STEP  12 IN STRESS PERIOD    3
                    SECONDS     MINUTES      HOURS       DAYS        YEARS
                    -----------------------------------------------------------
   TIME STEP LENGTH  86400.      1440.0      24.000      1.0000     2.73785E-03
 STRESS PERIOD TIME 1.03680E+06  17280.      288.00      12.000     3.28542E-02
         TOTAL TIME 9.76320E+06 1.62720E+05  2712.0      113.00     0.30938    
1
 
 SOLVING FOR HEAD 

 OUTPUT CONTROL FOR STRESS PERIOD    3   TIME STEP  13
    SAVE HEAD FOR ALL LAYERS
    SAVE DRAWDOWN FOR ALL LAYERS
    SAVE BUDGET
    PRINT HEAD FOR ALL LAYERS
    PRINT BUDGET
 UBDSV1 SAVING "         STORAGE" ON UNIT  53 AT TIME STEP 13, STRESS PERIOD   3
 UBDSV2 SAVING "   CONSTANT HEAD" ON UNIT  53 AT TIME STEP 13, STRESS PERIOD   3
 UBDSV1 SAVING "FLOW RIGHT FACE " ON UNIT  53 AT TIME STEP 13, STRESS PERIOD   3
 UBDSV1 SAVING "FLOW FRONT FACE " ON UNIT  53 AT TIME STEP 13, STRESS PERIOD   3
1
              HEAD IN LAYER   1 AT END OF TIME STEP  13 IN STRESS PERIOD    3
  ---------------------------------------------------------------------------

            1           2           3           4           5           6           7           8           9          10
           11          12          13          14          15          16          17          18          19          20
 ........................................................................................................................
   1    9.990       9.507       9.019       8.528       8.032       7.532       7.027       6.518       6.003       5.485    
        4.962       4.435       3.902       3.364       2.820       2.271       1.715       1.154      0.5859      1.1554E-02
   2    9.990       9.507       9.019       8.527       8.031       7.529       7.022       6.510       5.992       5.472    
        4.951       4.427       3.898       3.362       2.819       2.270       1.715       1.154      0.5858      1.1554E-02
   3    9.990       9.507       9.019       8.525       8.026       7.519       7.000       6.468       5.926       5.390    
        4.885       4.385       3.876       3.351       2.815       2.269       1.715       1.153      0.5858      1.1553E-02
   4    9.990       9.506       9.017       8.520       8.013       7.485       6.922       6.304       5.625       4.953    
        4.581       4.219       3.797       3.318       2.802       2.264       1.713       1.153      0.5856      1.1550E-02
   5    9.990       9.505       9.015       8.514       7.994       7.432       6.777       5.922       4.658       2.563    
        3.598       3.827       3.647       3.264       2.783       2.258       1.711       1.152      0.5855      1.1547E-02
   6    9.990       9.506       9.017       8.520       8.013       7.485       6.922       6.304       5.625       4.953    
        4.581       4.219       3.797       3.318       2.802       2.264       1.713       1.153      0.5856      1.1550E-02
   7    9.990       9.507       9.019       8.525       8.026       7.519       7.000       6.468       5.926       5.390    
        4.885       4.385       3.876       3.351       2.815       2.269       1.715       1.153      0.5858      1.1553E-02
   8    9.990       9.507       9.019       8.527       8.031       7.529       7.022       6.510       5.992       5.472    
        4.951       4.427       3.898       3.362       2.819       2.270       1.715       1.154      0.5858      1.1554E-02
   9    9.990       9.507       9.019       8.528       8.032       7.532       7.027       6.518       6.004       5.485    
        4.963       4.435       3.902       3.364       2.820       2.271       1.715       1.154      0.5859      1.1554E-02
  10    9.990       9.507       9.019       8.528       8.032       7.532       7.028       6.519       6.006       5.487    
        4.964       4.436       3.903       3.365       2.821       2.271       1.715       1.154      0.5859      1.1554E-02

 HEAD WILL BE SAVED ON UNIT   51 AT END OF TIME STEP  13, STRESS PERIOD    3

 DRAWDOWN WILL BE SAVED ON UNIT   52 AT END OF TIME STEP  13, STRESS PERIOD    3
1
  VOLUMETRIC BUDGET FOR ENTIRE MODEL AT END OF TIME STEP 13 IN STRESS PERIOD   3
  ------------------------------------------------------------------------------

     CUMULATIVE VOLUMES      L**3       RATES FOR THIS TIME STEP      L**3/T
     ------------------                 ------------------------

           IN:                                      IN:
           ---                                      ---
             STORAGE =        6498.5796               STORAGE =         499.4431
       CONSTANT HEAD =           0.0000         CONSTANT HEAD =           0.0000
               WELLS =           0.0000                 WELLS =           0.0000
     HEAD DEP BOUNDS =       65859.4766       HEAD DEP BOUNDS =         578.1672

            TOTAL IN =       72358.0547              TOTAL IN =        1077.6104

          OUT:                                     OUT:
          ----                                     ----
             STORAGE =           0.1857               STORAGE =       1.7834E-04
       CONSTANT HEAD =           0.0000         CONSTANT HEAD =           0.0000
               WELLS =        6500.0000                 WELLS =         500.0000
     HEAD DEP BOUNDS =       65859.6875       HEAD DEP BOUNDS =         577.6178

           TOTAL OUT =       72359.8750             TOTAL OUT =        1077.6179

            IN - OUT =          -1.8203              IN - OUT =      -7.5684E-03

 PERCENT DISCREPANCY =           0.00     PERCENT DISCREPANCY =           0.00






          TIME SUMMARY AT END OF TIME STEP  13 IN STRESS PERIOD    3
                    SECONDS     MINUTES      HOURS       DAYS        YEARS
                    -----------------------------------------------------------
   TIME STEP LENGTH  86400.      1440.0      24.000      1.0000     2.73785E-03
 STRESS PERIOD TIME 1.12320E+06  18720.      312.00      13.000     3.55921E-02
         TOTAL TIME 9.84960E+06 1.64160E+05  2736.0      114.00     0.31211    
1
 
 SOLVING FOR HEAD 

 OUTPUT CONTROL FOR STRESS PERIOD    3   TIME STEP  14
    SAVE HEAD FOR ALL LAYERS
    SAVE DRAWDOWN FOR ALL LAYERS
    SAVE BUDGET
    PRINT HEAD FOR ALL LAYERS
    PRINT BUDGET
 UBDSV1 SAVING "         STORAGE" ON UNIT  53 AT TIME STEP 14, STRESS PERIOD   3
 UBDSV2 SAVING "   CONSTANT HEAD" ON UNIT  53 AT TIME STEP 14, STRESS PERIOD   3
 UBDSV1 SAVING "FLOW RIGHT FACE " ON UNIT  53 AT TIME STEP 14, STRESS PERIOD   3
 UBDSV1 SAVING "FLOW FRONT FACE " ON UNIT  53 AT TIME STEP 14, STRESS PERIOD   3
1
              HEAD IN LAYER   1 AT END OF TIME STEP  14 IN STRESS PERIOD    3
  ---------------------------------------------------------------------------

            1           2           3           4           5           6           7           8           9          10
           11          12          13          14          15          16          17          18          19          20
 ........................................................................................................................
   1    9.990       9.507       9.019       8.528       8.032       7.532       7.027       6.517       6.003       5.484    
        4.962       4.434       3.902       3.364       2.820       2.271       1.715       1.154      0.5859      1.1554E-02
   2    9.990       9.507       9.019       8.527       8.030       7.529       7.021       6.507       5.989       5.468    
        4.948       4.425       3.896       3.361       2.819       2.270       1.715       1.154      0.5858      1.1554E-02
   3    9.990       9.506       9.018       8.525       8.025       7.515       6.994       6.460       5.915       5.378    
        4.874       4.377       3.870       3.348       2.813       2.268       1.714       1.153      0.5857      1.1552E-02
   4    9.990       9.506       9.016       8.518       8.008       7.476       6.906       6.280       5.593       4.917    
        4.548       4.194       3.781       3.309       2.798       2.262       1.712       1.153      0.5855      1.1548E-02
   5    9.990       9.505       9.013       8.511       7.987       7.418       6.751       5.880       4.600       2.495    
        3.538       3.783       3.620       3.249       2.776       2.255       1.710       1.152      0.5853      1.1544E-02
   6    9.990       9.506       9.016       8.518       8.008       7.476       6.906       6.280       5.593       4.917    
        4.548       4.194       3.781       3.309       2.798       2.262       1.712       1.153      0.5855      1.1548E-02
   7    9.990       9.506       9.018       8.525       8.025       7.515       6.994       6.460       5.915       5.378    
        4.874       4.377       3.870       3.348       2.813       2.268       1.714       1.153      0.5857      1.1552E-02
   8    9.990       9.507       9.019       8.527       8.030       7.529       7.021       6.507       5.989       5.469    
        4.948       4.425       3.896       3.361       2.819       2.270       1.715       1.154      0.5858      1.1554E-02
   9    9.990       9.507       9.019       8.528       8.032       7.532       7.027       6.517       6.003       5.485    
        4.962       4.435       3.902       3.364       2.820       2.271       1.715       1.154      0.5859      1.1554E-02
  10    9.990       9.507       9.019       8.528       8.032       7.532       7.028       6.519       6.005       5.487    
        4.964       4.436       3.903       3.365       2.821       2.271       1.715       1.154      0.5859      1.1554E-02

 HEAD WILL BE SAVED ON UNIT   51 AT END OF TIME STEP  14, STRESS PERIOD    3

 DRAWDOWN WILL BE SAVED ON UNIT   52 AT END OF TIME STEP  14, STRESS PERIOD    3
1
  VOLUMETRIC BUDGET FOR ENTIRE MODEL AT END OF TIME STEP 14 IN STRESS PERIOD   3
  ------------------------------------------------------------------------------

     CUMULATIVE VOLUMES      L**3       RATES FOR THIS TIME STEP      L**3/T
     ------------------                 ------------------------

           IN:                                      IN:
           ---                                      ---
             STORAGE =        6997.8208               STORAGE =         499.2412
       CONSTANT HEAD =           0.0000         CONSTANT HEAD =           0.0000
               WELLS =           0.0000                 WELLS =           0.0000
     HEAD DEP BOUNDS =       66437.8125       HEAD DEP BOUNDS =         578.3341

            TOTAL IN =       73435.6328              TOTAL IN =        1077.5753

          OUT:                                     OUT:
          ----                                     ----
             STORAGE =           0.1857               STORAGE =           0.0000
       CONSTANT HEAD =           0.0000         CONSTANT HEAD =           0.0000
               WELLS =        7000.0000                 WELLS =         500.0000
     HEAD DEP BOUNDS =       66437.2656       HEAD DEP BOUNDS =         577.5756

           TOTAL OUT =       73437.4531             TOTAL OUT =        1077.5757

            IN - OUT =          -1.8203              IN - OUT =      -3.6621E-04

 PERCENT DISCREPANCY =           0.00     PERCENT DISCREPANCY =           0.00






          TIME SUMMARY AT END OF TIME STEP  14 IN STRESS PERIOD    3
                    SECONDS     MINUTES      HOURS       DAYS        YEARS
                    -----------------------------------------------------------
   TIME STEP LENGTH  86400.      1440.0      24.000      1.0000     2.73785E-03
 STRESS PERIOD TIME 1.20960E+06  20160.      336.00      14.000     3.83299E-02
         TOTAL TIME 9.93600E+06 1.65600E+05  2760.0      115.00     0.31485    
1
 
 SOLVING FOR HEAD 

 OUTPUT CONTROL FOR STRESS PERIOD    3   TIME STEP  15
    SAVE HEAD FOR ALL LAYERS
    SAVE DRAWDOWN FOR ALL LAYERS
    SAVE BUDGET
    PRINT HEAD FOR ALL LAYERS
    PRINT BUDGET
 UBDSV1 SAVING "         STORAGE" ON UNIT  53 AT TIME STEP 15, STRESS PERIOD   3
 UBDSV2 SAVING "   CONSTANT HEAD" ON UNIT  53 AT TIME STEP 15, STRESS PERIOD   3
 UBDSV1 SAVING "FLOW RIGHT FACE " ON UNIT  53 AT TIME STEP 15, STRESS PERIOD   3
 UBDSV1 SAVING "FLOW FRONT FACE " ON UNIT  53 AT TIME STEP 15, STRESS PERIOD   3
1
              HEAD IN LAYER   1 AT END OF TIME STEP  15 IN STRESS PERIOD    3
  ---------------------------------------------------------------------------

            1           2           3           4           5           6           7           8           9          10
           11          12          13          14          15          16          17          18          19          20
 ........................................................................................................................
   1    9.990       9.507       9.019       8.528       8.032       7.531       7.026       6.516       6.002       5.483    
        4.961       4.434       3.901       3.364       2.820       2.271       1.715       1.154      0.5858      1.1554E-02
   2    9.990       9.507       9.019       8.527       8.030       7.527       7.019       6.505       5.986       5.465    
        4.945       4.422       3.895       3.360       2.818       2.270       1.715       1.154      0.5858      1.1553E-02
   3    9.990       9.506       9.018       8.524       8.023       7.512       6.988       6.451       5.904       5.366    
        4.862       4.368       3.864       3.345       2.812       2.267       1.714       1.153      0.5857      1.1551E-02
   4    9.990       9.505       9.015       8.516       8.004       7.467       6.891       6.256       5.561       4.882    
        4.516       4.170       3.765       3.300       2.793       2.260       1.711       1.152      0.5854      1.1546E-02
   5    9.990       9.505       9.012       8.508       7.980       7.403       6.725       5.840       4.545       2.432    
        3.483       3.742       3.594       3.234       2.769       2.251       1.708       1.151      0.5852      1.1541E-02
   6    9.990       9.505       9.015       8.516       8.004       7.467       6.891       6.256       5.561       4.882    
        4.516       4.170       3.765       3.300       2.793       2.260       1.711       1.152      0.5854      1.1546E-02
   7    9.990       9.506       9.018       8.524       8.023       7.512       6.988       6.451       5.904       5.366    
        4.862       4.368       3.864       3.345       2.812       2.267       1.714       1.153      0.5857      1.1551E-02
   8    9.990       9.507       9.019       8.527       8.030       7.528       7.019       6.505       5.986       5.465    
        4.945       4.422       3.895       3.360       2.818       2.270       1.715       1.154      0.5858      1.1553E-02
   9    9.990       9.507       9.019       8.528       8.032       7.531       7.026       6.517       6.003       5.484    
        4.961       4.434       3.902       3.364       2.820       2.271       1.715       1.154      0.5858      1.1554E-02
  10    9.990       9.507       9.019       8.528       8.032       7.532       7.028       6.519       6.005       5.487    
        4.964       4.436       3.903       3.365       2.821       2.271       1.715       1.154      0.5859      1.1554E-02

 HEAD WILL BE SAVED ON UNIT   51 AT END OF TIME STEP  15, STRESS PERIOD    3

 DRAWDOWN WILL BE SAVED ON UNIT   52 AT END OF TIME STEP  15, STRESS PERIOD    3
1
  VOLUMETRIC BUDGET FOR ENTIRE MODEL AT END OF TIME STEP 15 IN STRESS PERIOD   3
  ------------------------------------------------------------------------------

     CUMULATIVE VOLUMES      L**3       RATES FOR THIS TIME STEP      L**3/T
     ------------------                 ------------------------

           IN:                                      IN:
           ---                                      ---
             STORAGE =        7496.8125               STORAGE =         498.9919
       CONSTANT HEAD =           0.0000         CONSTANT HEAD =           0.0000
               WELLS =           0.0000                 WELLS =           0.0000
     HEAD DEP BOUNDS =       67016.3359       HEAD DEP BOUNDS =         578.5257

            TOTAL IN =       74513.1484              TOTAL IN =        1077.5176

          OUT:                                     OUT:
          ----                                     ----
             STORAGE =           0.1858               STORAGE =       1.7262E-04
       CONSTANT HEAD =           0.0000         CONSTANT HEAD =           0.0000
               WELLS =        7500.0000                 WELLS =         500.0000
     HEAD DEP BOUNDS =       67014.7891       HEAD DEP BOUNDS =         577.5221

           TOTAL OUT =       74514.9766             TOTAL OUT =        1077.5222

            IN - OUT =          -1.8281              IN - OUT =      -4.6387E-03

 PERCENT DISCREPANCY =           0.00     PERCENT DISCREPANCY =           0.00






          TIME SUMMARY AT END OF TIME STEP  15 IN STRESS PERIOD    3
                    SECONDS     MINUTES      HOURS       DAYS        YEARS
                    -----------------------------------------------------------
   TIME STEP LENGTH  86400.      1440.0      24.000      1.0000     2.73785E-03
 STRESS PERIOD TIME 1.29600E+06  21600.      360.00      15.000     4.10678E-02
         TOTAL TIME 1.00224E+07 1.67040E+05  2784.0      116.00     0.31759    
1
 
 SOLVING FOR HEAD 

 OUTPUT CONTROL FOR STRESS PERIOD    3   TIME STEP  16
    SAVE HEAD FOR ALL LAYERS
    SAVE DRAWDOWN FOR ALL LAYERS
    SAVE BUDGET
    PRINT HEAD FOR ALL LAYERS
    PRINT BUDGET
 UBDSV1 SAVING "         STORAGE" ON UNIT  53 AT TIME STEP 16, STRESS PERIOD   3
 UBDSV2 SAVING "   CONSTANT HEAD" ON UNIT  53 AT TIME STEP 16, STRESS PERIOD   3
 UBDSV1 SAVING "FLOW RIGHT FACE " ON UNIT  53 AT TIME STEP 16, STRESS PERIOD   3
 UBDSV1 SAVING "FLOW FRONT FACE " ON UNIT  53 AT TIME STEP 16, STRESS PERIOD   3
1
              HEAD IN LAYER   1 AT END OF TIME STEP  16 IN STRESS PERIOD    3
  ---------------------------------------------------------------------------

            1           2           3           4           5           6           7           8           9          10
           11          12          13          14          15          16          17          18          19          20
 ........................................................................................................................
   1    9.990       9.507       9.019       8.528       8.032       7.531       7.026       6.516       6.001       5.482    
        4.960       4.433       3.901       3.363       2.820       2.271       1.715       1.154      0.5858      1.1554E-02
   2    9.990       9.507       9.019       8.527       8.029       7.526       7.017       6.502       5.983       5.462    
        4.942       4.420       3.893       3.359       2.818       2.270       1.715       1.154      0.5858      1.1553E-02
   3    9.990       9.506       9.017       8.523       8.021       7.508       6.982       6.442       5.892       5.353    
        4.851       4.359       3.858       3.341       2.810       2.266       1.713       1.153      0.5856      1.1550E-02
   4    9.990       9.505       9.014       8.514       7.999       7.458       6.875       6.232       5.531       4.849    
        4.485       4.146       3.749       3.290       2.788       2.257       1.710       1.152      0.5853      1.1543E-02
   5    9.990       9.504       9.010       8.504       7.972       7.389       6.700       5.802       4.495       2.374    
        3.431       3.703       3.568       3.219       2.761       2.248       1.707       1.151      0.5850      1.1537E-02
   6    9.990       9.505       9.014       8.514       7.999       7.458       6.875       6.232       5.531       4.849    
        4.485       4.146       3.749       3.290       2.788       2.257       1.710       1.152      0.5853      1.1543E-02
   7    9.990       9.506       9.017       8.523       8.021       7.508       6.982       6.442       5.892       5.353    
        4.851       4.359       3.858       3.341       2.810       2.266       1.713       1.153      0.5856      1.1550E-02
   8    9.990       9.507       9.019       8.527       8.029       7.526       7.017       6.502       5.983       5.462    
        4.942       4.420       3.893       3.359       2.818       2.270       1.715       1.154      0.5858      1.1553E-02
   9    9.990       9.507       9.019       8.528       8.032       7.531       7.026       6.516       6.002       5.483    
        4.961       4.433       3.901       3.364       2.820       2.271       1.715       1.154      0.5858      1.1554E-02
  10    9.990       9.507       9.019       8.528       8.032       7.532       7.028       6.519       6.005       5.487    
        4.964       4.436       3.903       3.365       2.821       2.271       1.715       1.154      0.5859      1.1554E-02

 HEAD WILL BE SAVED ON UNIT   51 AT END OF TIME STEP  16, STRESS PERIOD    3

 DRAWDOWN WILL BE SAVED ON UNIT   52 AT END OF TIME STEP  16, STRESS PERIOD    3
1
  VOLUMETRIC BUDGET FOR ENTIRE MODEL AT END OF TIME STEP 16 IN STRESS PERIOD   3
  ------------------------------------------------------------------------------

     CUMULATIVE VOLUMES      L**3       RATES FOR THIS TIME STEP      L**3/T
     ------------------                 ------------------------

           IN:                                      IN:
           ---                                      ---
             STORAGE =        7995.5073               STORAGE =         498.6950
       CONSTANT HEAD =           0.0000         CONSTANT HEAD =           0.0000
               WELLS =           0.0000                 WELLS =           0.0000
     HEAD DEP BOUNDS =       67595.0859       HEAD DEP BOUNDS =         578.7509

            TOTAL IN =       75590.5938              TOTAL IN =        1077.4458

          OUT:                                     OUT:
          ----                                     ----
             STORAGE =           0.1861               STORAGE =       2.5225E-04
       CONSTANT HEAD =           0.0000         CONSTANT HEAD =           0.0000
               WELLS =        8000.0000                 WELLS =         500.0000
     HEAD DEP BOUNDS =       67592.2422       HEAD DEP BOUNDS =         577.4562

           TOTAL OUT =       75592.4297             TOTAL OUT =        1077.4565

            IN - OUT =          -1.8359              IN - OUT =      -1.0742E-02

 PERCENT DISCREPANCY =           0.00     PERCENT DISCREPANCY =           0.00






          TIME SUMMARY AT END OF TIME STEP  16 IN STRESS PERIOD    3
                    SECONDS     MINUTES      HOURS       DAYS        YEARS
                    -----------------------------------------------------------
   TIME STEP LENGTH  86400.      1440.0      24.000      1.0000     2.73785E-03
 STRESS PERIOD TIME 1.38240E+06  23040.      384.00      16.000     4.38056E-02
         TOTAL TIME 1.01088E+07 1.68480E+05  2808.0      117.00     0.32033    
1
 
 SOLVING FOR HEAD 

 OUTPUT CONTROL FOR STRESS PERIOD    3   TIME STEP  17
    SAVE HEAD FOR ALL LAYERS
    SAVE DRAWDOWN FOR ALL LAYERS
    SAVE BUDGET
    PRINT HEAD FOR ALL LAYERS
    PRINT BUDGET
 UBDSV1 SAVING "         STORAGE" ON UNIT  53 AT TIME STEP 17, STRESS PERIOD   3
 UBDSV2 SAVING "   CONSTANT HEAD" ON UNIT  53 AT TIME STEP 17, STRESS PERIOD   3
 UBDSV1 SAVING "FLOW RIGHT FACE " ON UNIT  53 AT TIME STEP 17, STRESS PERIOD   3
 UBDSV1 SAVING "FLOW FRONT FACE " ON UNIT  53 AT TIME STEP 17, STRESS PERIOD   3
1
              HEAD IN LAYER   1 AT END OF TIME STEP  17 IN STRESS PERIOD    3
  ---------------------------------------------------------------------------

            1           2           3           4           5           6           7           8           9          10
           11          12          13          14          15          16          17          18          19          20
 ........................................................................................................................
   1    9.990       9.507       9.019       8.527       8.031       7.531       7.025       6.515       6.000       5.481    
        4.959       4.432       3.900       3.363       2.820       2.270       1.715       1.154      0.5858      1.1554E-02
   2    9.990       9.507       9.019       8.526       8.028       7.525       7.015       6.499       5.979       5.458    
        4.938       4.417       3.891       3.358       2.817       2.269       1.715       1.153      0.5858      1.1552E-02
   3    9.990       9.506       9.017       8.521       8.018       7.504       6.975       6.432       5.880       5.340    
        4.839       4.349       3.851       3.337       2.807       2.265       1.713       1.153      0.5855      1.1548E-02
   4    9.990       9.504       9.013       8.511       7.993       7.448       6.859       6.209       5.501       4.816    
        4.455       4.122       3.732       3.280       2.782       2.255       1.709       1.151      0.5851      1.1540E-02
   5    9.990       9.503       9.009       8.500       7.964       7.374       6.675       5.766       4.447       2.320    
        3.383       3.665       3.542       3.204       2.753       2.244       1.705       1.150      0.5847      1.1532E-02
   6    9.990       9.504       9.013       8.511       7.993       7.448       6.859       6.209       5.501       4.816    
        4.455       4.122       3.732       3.280       2.782       2.255       1.709       1.151      0.5851      1.1540E-02
   7    9.990       9.506       9.017       8.521       8.018       7.504       6.975       6.432       5.880       5.340    
        4.839       4.349       3.851       3.337       2.807       2.265       1.713       1.153      0.5855      1.1548E-02
   8    9.990       9.507       9.019       8.526       8.028       7.525       7.015       6.500       5.979       5.458    
        4.938       4.417       3.891       3.358       2.817       2.269       1.715       1.153      0.5858      1.1552E-02
   9    9.990       9.507       9.019       8.528       8.031       7.531       7.026       6.515       6.001       5.482    
        4.960       4.433       3.901       3.363       2.820       2.271       1.715       1.154      0.5858      1.1554E-02
  10    9.990       9.507       9.019       8.528       8.032       7.532       7.028       6.519       6.005       5.487    
        4.964       4.436       3.903       3.364       2.820       2.271       1.715       1.154      0.5859      1.1554E-02

 HEAD WILL BE SAVED ON UNIT   51 AT END OF TIME STEP  17, STRESS PERIOD    3

 DRAWDOWN WILL BE SAVED ON UNIT   52 AT END OF TIME STEP  17, STRESS PERIOD    3
1
  VOLUMETRIC BUDGET FOR ENTIRE MODEL AT END OF TIME STEP 17 IN STRESS PERIOD   3
  ------------------------------------------------------------------------------

     CUMULATIVE VOLUMES      L**3       RATES FOR THIS TIME STEP      L**3/T
     ------------------                 ------------------------

           IN:                                      IN:
           ---                                      ---
             STORAGE =        8493.8574               STORAGE =         498.3501
       CONSTANT HEAD =           0.0000         CONSTANT HEAD =           0.0000
               WELLS =           0.0000                 WELLS =           0.0000
     HEAD DEP BOUNDS =       68174.1016       HEAD DEP BOUNDS =         579.0161

            TOTAL IN =       76667.9609              TOTAL IN =        1077.3661

          OUT:                                     OUT:
          ----                                     ----
             STORAGE =           0.1862               STORAGE =       1.0014E-04
       CONSTANT HEAD =           0.0000         CONSTANT HEAD =           0.0000
               WELLS =        8500.0000                 WELLS =         500.0000
     HEAD DEP BOUNDS =       68169.6172       HEAD DEP BOUNDS =         577.3745

           TOTAL OUT =       76669.8047             TOTAL OUT =        1077.3745

            IN - OUT =          -1.8438              IN - OUT =      -8.4229E-03

 PERCENT DISCREPANCY =           0.00     PERCENT DISCREPANCY =           0.00






          TIME SUMMARY AT END OF TIME STEP  17 IN STRESS PERIOD    3
                    SECONDS     MINUTES      HOURS       DAYS        YEARS
                    -----------------------------------------------------------
   TIME STEP LENGTH  86400.      1440.0      24.000      1.0000     2.73785E-03
 STRESS PERIOD TIME 1.46880E+06  24480.      408.00      17.000     4.65435E-02
         TOTAL TIME 1.01952E+07 1.69920E+05  2832.0      118.00     0.32307    
1
 
 SOLVING FOR HEAD 

 OUTPUT CONTROL FOR STRESS PERIOD    3   TIME STEP  18
    SAVE HEAD FOR ALL LAYERS
    SAVE DRAWDOWN FOR ALL LAYERS
    SAVE BUDGET
    PRINT HEAD FOR ALL LAYERS
    PRINT BUDGET
 UBDSV1 SAVING "         STORAGE" ON UNIT  53 AT TIME STEP 18, STRESS PERIOD   3
 UBDSV2 SAVING "   CONSTANT HEAD" ON UNIT  53 AT TIME STEP 18, STRESS PERIOD   3
 UBDSV1 SAVING "FLOW RIGHT FACE " ON UNIT  53 AT TIME STEP 18, STRESS PERIOD   3
 UBDSV1 SAVING "FLOW FRONT FACE " ON UNIT  53 AT TIME STEP 18, STRESS PERIOD   3
1
              HEAD IN LAYER   1 AT END OF TIME STEP  18 IN STRESS PERIOD    3
  ---------------------------------------------------------------------------

            1           2           3           4           5           6           7           8           9          10
           11          12          13          14          15          16          17          18          19          20
 ........................................................................................................................
   1    9.990       9.507       9.019       8.527       8.031       7.530       7.024       6.514       5.999       5.480    
        4.958       4.431       3.900       3.363       2.819       2.270       1.715       1.154      0.5858      1.1554E-02
   2    9.990       9.506       9.018       8.526       8.028       7.524       7.013       6.496       5.975       5.454    
        4.934       4.414       3.889       3.356       2.816       2.269       1.714       1.153      0.5857      1.1552E-02
   3    9.990       9.506       9.016       8.520       8.016       7.499       6.969       6.422       5.868       5.327    
        4.827       4.339       3.844       3.332       2.805       2.264       1.712       1.152      0.5854      1.1546E-02
   4    9.990       9.504       9.011       8.508       7.987       7.438       6.843       6.186       5.472       4.784    
        4.425       4.098       3.716       3.270       2.777       2.252       1.708       1.151      0.5849      1.1536E-02
   5    9.990       9.502       9.007       8.496       7.956       7.359       6.652       5.731       4.402       2.269    
        3.337       3.629       3.517       3.189       2.744       2.240       1.703       1.149      0.5844      1.1526E-02
   6    9.990       9.504       9.011       8.508       7.987       7.438       6.843       6.186       5.472       4.784    
        4.425       4.098       3.716       3.270       2.777       2.252       1.708       1.151      0.5849      1.1536E-02
   7    9.990       9.506       9.016       8.520       8.016       7.499       6.969       6.422       5.868       5.328    
        4.827       4.339       3.844       3.333       2.805       2.264       1.712       1.153      0.5854      1.1546E-02
   8    9.990       9.506       9.018       8.526       8.028       7.524       7.013       6.497       5.976       5.454    
        4.934       4.414       3.889       3.356       2.816       2.269       1.714       1.153      0.5857      1.1552E-02
   9    9.990       9.507       9.019       8.527       8.031       7.530       7.025       6.515       6.000       5.481    
        4.959       4.432       3.900       3.363       2.820       2.270       1.715       1.154      0.5858      1.1554E-02
  10    9.990       9.507       9.019       8.528       8.032       7.532       7.027       6.518       6.005       5.486    
        4.964       4.436       3.903       3.364       2.820       2.271       1.715       1.154      0.5859      1.1554E-02

 HEAD WILL BE SAVED ON UNIT   51 AT END OF TIME STEP  18, STRESS PERIOD    3

 DRAWDOWN WILL BE SAVED ON UNIT   52 AT END OF TIME STEP  18, STRESS PERIOD    3
1
  VOLUMETRIC BUDGET FOR ENTIRE MODEL AT END OF TIME STEP 18 IN STRESS PERIOD   3
  ------------------------------------------------------------------------------

     CUMULATIVE VOLUMES      L**3       RATES FOR THIS TIME STEP      L**3/T
     ------------------                 ------------------------

           IN:                                      IN:
           ---                                      ---
             STORAGE =        8991.7998               STORAGE =         497.9422
       CONSTANT HEAD =           0.0000         CONSTANT HEAD =           0.0000
               WELLS =           0.0000                 WELLS =           0.0000
     HEAD DEP BOUNDS =       68753.4375       HEAD DEP BOUNDS =         579.3333

            TOTAL IN =       77745.2344              TOTAL IN =        1077.2754

          OUT:                                     OUT:
          ----                                     ----
             STORAGE =           0.1862               STORAGE =           0.0000
       CONSTANT HEAD =           0.0000         CONSTANT HEAD =           0.0000
               WELLS =        9000.0000                 WELLS =         500.0000
     HEAD DEP BOUNDS =       68746.8906       HEAD DEP BOUNDS =         577.2769

           TOTAL OUT =       77747.0781             TOTAL OUT =        1077.2769

            IN - OUT =          -1.8438              IN - OUT =      -1.4648E-03

 PERCENT DISCREPANCY =           0.00     PERCENT DISCREPANCY =           0.00






          TIME SUMMARY AT END OF TIME STEP  18 IN STRESS PERIOD    3
                    SECONDS     MINUTES      HOURS       DAYS        YEARS
                    -----------------------------------------------------------
   TIME STEP LENGTH  86400.      1440.0      24.000      1.0000     2.73785E-03
 STRESS PERIOD TIME 1.55520E+06  25920.      432.00      18.000     4.92813E-02
         TOTAL TIME 1.02816E+07 1.71360E+05  2856.0      119.00     0.32580    
1
 
 SOLVING FOR HEAD 

 OUTPUT CONTROL FOR STRESS PERIOD    3   TIME STEP  19
    SAVE HEAD FOR ALL LAYERS
    SAVE DRAWDOWN FOR ALL LAYERS
    SAVE BUDGET
    PRINT HEAD FOR ALL LAYERS
    PRINT BUDGET
 UBDSV1 SAVING "         STORAGE" ON UNIT  53 AT TIME STEP 19, STRESS PERIOD   3
 UBDSV2 SAVING "   CONSTANT HEAD" ON UNIT  53 AT TIME STEP 19, STRESS PERIOD   3
 UBDSV1 SAVING "FLOW RIGHT FACE " ON UNIT  53 AT TIME STEP 19, STRESS PERIOD   3
 UBDSV1 SAVING "FLOW FRONT FACE " ON UNIT  53 AT TIME STEP 19, STRESS PERIOD   3
1
              HEAD IN LAYER   1 AT END OF TIME STEP  19 IN STRESS PERIOD    3
  ---------------------------------------------------------------------------

            1           2           3           4           5           6           7           8           9          10
           11          12          13          14          15          16          17          18          19          20
 ........................................................................................................................
   1    9.990       9.507       9.019       8.527       8.031       7.530       7.024       6.513       5.998       5.479    
        4.957       4.430       3.899       3.362       2.819       2.270       1.715       1.154      0.5858      1.1553E-02
   2    9.990       9.506       9.018       8.525       8.027       7.522       7.011       6.493       5.972       5.450    
        4.930       4.411       3.886       3.355       2.815       2.268       1.714       1.153      0.5857      1.1551E-02
   3    9.990       9.505       9.015       8.519       8.013       7.495       6.961       6.412       5.856       5.314    
        4.814       4.329       3.837       3.328       2.802       2.262       1.712       1.152      0.5853      1.1544E-02
   4    9.990       9.503       9.010       8.505       7.981       7.427       6.826       6.163       5.444       4.754    
        4.397       4.075       3.699       3.259       2.771       2.249       1.706       1.150      0.5846      1.1531E-02
   5    9.990       9.502       9.004       8.491       7.947       7.345       6.628       5.698       4.360       2.222    
        3.294       3.595       3.493       3.173       2.736       2.235       1.701       1.148      0.5841      1.1520E-02
   6    9.990       9.503       9.010       8.505       7.981       7.427       6.826       6.163       5.444       4.754    
        4.397       4.075       3.699       3.259       2.771       2.249       1.706       1.150      0.5846      1.1531E-02
   7    9.990       9.505       9.015       8.519       8.013       7.495       6.961       6.413       5.856       5.315    
        4.814       4.329       3.837       3.328       2.802       2.262       1.712       1.152      0.5853      1.1544E-02
   8    9.990       9.506       9.018       8.525       8.027       7.522       7.011       6.493       5.972       5.450    
        4.931       4.411       3.886       3.355       2.815       2.268       1.714       1.153      0.5857      1.1551E-02
   9    9.990       9.507       9.019       8.527       8.031       7.530       7.024       6.514       5.999       5.480    
        4.958       4.431       3.900       3.362       2.819       2.270       1.715       1.154      0.5858      1.1553E-02
  10    9.990       9.507       9.019       8.528       8.032       7.532       7.027       6.518       6.004       5.486    
        4.963       4.435       3.903       3.364       2.820       2.271       1.715       1.154      0.5858      1.1554E-02

 HEAD WILL BE SAVED ON UNIT   51 AT END OF TIME STEP  19, STRESS PERIOD    3

 DRAWDOWN WILL BE SAVED ON UNIT   52 AT END OF TIME STEP  19, STRESS PERIOD    3
1
  VOLUMETRIC BUDGET FOR ENTIRE MODEL AT END OF TIME STEP 19 IN STRESS PERIOD   3
  ------------------------------------------------------------------------------

     CUMULATIVE VOLUMES      L**3       RATES FOR THIS TIME STEP      L**3/T
     ------------------                 ------------------------

           IN:                                      IN:
           ---                                      ---
             STORAGE =        9489.2773               STORAGE =         497.4775
       CONSTANT HEAD =           0.0000         CONSTANT HEAD =           0.0000
               WELLS =           0.0000                 WELLS =           0.0000
     HEAD DEP BOUNDS =       69333.1250       HEAD DEP BOUNDS =         579.6893

            TOTAL IN =       78822.4062              TOTAL IN =        1077.1669

          OUT:                                     OUT:
          ----                                     ----
             STORAGE =           0.1864               STORAGE =       1.7738E-04
       CONSTANT HEAD =           0.0000         CONSTANT HEAD =           0.0000
               WELLS =        9500.0000                 WELLS =         500.0000
     HEAD DEP BOUNDS =       69324.0547       HEAD DEP BOUNDS =         577.1606

           TOTAL OUT =       78824.2422             TOTAL OUT =        1077.1608

            IN - OUT =          -1.8359              IN - OUT =       6.1035E-03

 PERCENT DISCREPANCY =           0.00     PERCENT DISCREPANCY =           0.00






          TIME SUMMARY AT END OF TIME STEP  19 IN STRESS PERIOD    3
                    SECONDS     MINUTES      HOURS       DAYS        YEARS
                    -----------------------------------------------------------
   TIME STEP LENGTH  86400.      1440.0      24.000      1.0000     2.73785E-03
 STRESS PERIOD TIME 1.64160E+06  27360.      456.00      19.000     5.20192E-02
         TOTAL TIME 1.03680E+07 1.72800E+05  2880.0      120.00     0.32854    
1
 
 SOLVING FOR HEAD 

 OUTPUT CONTROL FOR STRESS PERIOD    3   TIME STEP  20
    SAVE HEAD FOR ALL LAYERS
    SAVE DRAWDOWN FOR ALL LAYERS
    SAVE BUDGET
    PRINT HEAD FOR ALL LAYERS
    PRINT BUDGET
 UBDSV1 SAVING "         STORAGE" ON UNIT  53 AT TIME STEP 20, STRESS PERIOD   3
 UBDSV2 SAVING "   CONSTANT HEAD" ON UNIT  53 AT TIME STEP 20, STRESS PERIOD   3
 UBDSV1 SAVING "FLOW RIGHT FACE " ON UNIT  53 AT TIME STEP 20, STRESS PERIOD   3
 UBDSV1 SAVING "FLOW FRONT FACE " ON UNIT  53 AT TIME STEP 20, STRESS PERIOD   3
1
              HEAD IN LAYER   1 AT END OF TIME STEP  20 IN STRESS PERIOD    3
  ---------------------------------------------------------------------------

            1           2           3           4           5           6           7           8           9          10
           11          12          13          14          15          16          17          18          19          20
 ........................................................................................................................
   1    9.990       9.507       9.019       8.527       8.030       7.529       7.023       6.512       5.996       5.477    
        4.955       4.429       3.898       3.361       2.819       2.270       1.715       1.154      0.5858      1.1553E-02
   2    9.990       9.506       9.018       8.524       8.025       7.520       7.008       6.490       5.967       5.445    
        4.926       4.407       3.884       3.353       2.814       2.268       1.714       1.153      0.5856      1.1550E-02
   3    9.990       9.505       9.014       8.517       8.010       7.490       6.954       6.402       5.844       5.301    
        4.802       4.319       3.829       3.323       2.799       2.261       1.711       1.152      0.5852      1.1541E-02
   4    9.990       9.503       9.008       8.501       7.975       7.417       6.810       6.141       5.417       4.725    
        4.369       4.052       3.682       3.249       2.764       2.245       1.704       1.149      0.5844      1.1525E-02
   5    9.990       9.501       9.002       8.487       7.939       7.330       6.606       5.666       4.320       2.177    
        3.253       3.562       3.469       3.158       2.727       2.230       1.699       1.147      0.5837      1.1512E-02
   6    9.990       9.503       9.008       8.501       7.975       7.417       6.810       6.141       5.417       4.725    
        4.369       4.052       3.682       3.249       2.764       2.245       1.704       1.149      0.5844      1.1525E-02
   7    9.990       9.505       9.014       8.517       8.010       7.490       6.954       6.402       5.844       5.301    
        4.802       4.319       3.829       3.323       2.799       2.261       1.711       1.152      0.5852      1.1541E-02
   8    9.990       9.506       9.018       8.524       8.026       7.520       7.008       6.490       5.968       5.446    
        4.926       4.407       3.884       3.353       2.814       2.268       1.714       1.153      0.5856      1.1550E-02
   9    9.990       9.507       9.019       8.527       8.031       7.530       7.024       6.513       5.998       5.479    
        4.957       4.430       3.899       3.362       2.819       2.270       1.715       1.154      0.5858      1.1553E-02
  10    9.990       9.507       9.019       8.528       8.032       7.532       7.027       6.518       6.004       5.486    
        4.963       4.435       3.902       3.364       2.820       2.271       1.715       1.154      0.5858      1.1554E-02

 HEAD WILL BE SAVED ON UNIT   51 AT END OF TIME STEP  20, STRESS PERIOD    3

 DRAWDOWN WILL BE SAVED ON UNIT   52 AT END OF TIME STEP  20, STRESS PERIOD    3
1
  VOLUMETRIC BUDGET FOR ENTIRE MODEL AT END OF TIME STEP 20 IN STRESS PERIOD   3
  ------------------------------------------------------------------------------

     CUMULATIVE VOLUMES      L**3       RATES FOR THIS TIME STEP      L**3/T
     ------------------                 ------------------------

           IN:                                      IN:
           ---                                      ---
             STORAGE =        9986.2207               STORAGE =         496.9433
       CONSTANT HEAD =           0.0000         CONSTANT HEAD =           0.0000
               WELLS =           0.0000                 WELLS =           0.0000
     HEAD DEP BOUNDS =       69913.2031       HEAD DEP BOUNDS =         580.0782

            TOTAL IN =       79899.4219              TOTAL IN =        1077.0216

          OUT:                                     OUT:
          ----                                     ----
             STORAGE =           0.1866               STORAGE =       1.8501E-04
       CONSTANT HEAD =           0.0000         CONSTANT HEAD =           0.0000
               WELLS =       10000.0000                 WELLS =         500.0000
     HEAD DEP BOUNDS =       69901.0781       HEAD DEP BOUNDS =         577.0260

           TOTAL OUT =       79901.2656             TOTAL OUT =        1077.0261

            IN - OUT =          -1.8438              IN - OUT =      -4.5166E-03

 PERCENT DISCREPANCY =           0.00     PERCENT DISCREPANCY =           0.00






          TIME SUMMARY AT END OF TIME STEP  20 IN STRESS PERIOD    3
                    SECONDS     MINUTES      HOURS       DAYS        YEARS
                    -----------------------------------------------------------
   TIME STEP LENGTH  86400.      1440.0      24.000      1.0000     2.73785E-03
 STRESS PERIOD TIME 1.72800E+06  28800.      480.00      20.000     5.47570E-02
         TOTAL TIME 1.04544E+07 1.74240E+05  2904.0      121.00     0.33128    
1
 
 SOLVING FOR HEAD 

 OUTPUT CONTROL FOR STRESS PERIOD    3   TIME STEP  21
    SAVE HEAD FOR ALL LAYERS
    SAVE DRAWDOWN FOR ALL LAYERS
    SAVE BUDGET
    PRINT HEAD FOR ALL LAYERS
    PRINT BUDGET
 UBDSV1 SAVING "         STORAGE" ON UNIT  53 AT TIME STEP 21, STRESS PERIOD   3
 UBDSV2 SAVING "   CONSTANT HEAD" ON UNIT  53 AT TIME STEP 21, STRESS PERIOD   3
 UBDSV1 SAVING "FLOW RIGHT FACE " ON UNIT  53 AT TIME STEP 21, STRESS PERIOD   3
 UBDSV1 SAVING "FLOW FRONT FACE " ON UNIT  53 AT TIME STEP 21, STRESS PERIOD   3
1
              HEAD IN LAYER   1 AT END OF TIME STEP  21 IN STRESS PERIOD    3
  ---------------------------------------------------------------------------

            1           2           3           4           5           6           7           8           9          10
           11          12          13          14          15          16          17          18          19          20
 ........................................................................................................................
   1    9.990       9.507       9.019       8.527       8.030       7.528       7.022       6.510       5.995       5.476    
        4.954       4.428       3.897       3.361       2.818       2.270       1.715       1.153      0.5858      1.1552E-02
   2    9.990       9.506       9.017       8.524       8.024       7.518       7.005       6.486       5.963       5.441    
        4.922       4.403       3.881       3.351       2.813       2.267       1.714       1.153      0.5856      1.1549E-02
   3    9.990       9.505       9.013       8.515       8.006       7.485       6.946       6.392       5.832       5.288    
        4.790       4.309       3.821       3.318       2.796       2.259       1.710       1.151      0.5850      1.1538E-02
   4    9.990       9.502       9.006       8.498       7.968       7.406       6.794       6.119       5.390       4.696    
        4.342       4.030       3.666       3.238       2.757       2.242       1.703       1.148      0.5840      1.1519E-02
   5    9.990       9.500       9.000       8.482       7.930       7.315       6.583       5.635       4.282       2.135    
        3.214       3.530       3.446       3.143       2.718       2.225       1.696       1.146      0.5833      1.1504E-02
   6    9.990       9.502       9.006       8.498       7.968       7.406       6.794       6.119       5.390       4.696    
        4.342       4.030       3.666       3.238       2.757       2.242       1.703       1.148      0.5840      1.1519E-02
   7    9.990       9.505       9.013       8.515       8.006       7.485       6.946       6.392       5.832       5.288    
        4.790       4.309       3.822       3.318       2.796       2.259       1.710       1.151      0.5850      1.1538E-02
   8    9.990       9.506       9.017       8.524       8.024       7.518       7.005       6.486       5.963       5.441    
        4.922       4.404       3.881       3.351       2.813       2.267       1.714       1.153      0.5856      1.1549E-02
   9    9.990       9.507       9.019       8.527       8.030       7.529       7.023       6.512       5.997       5.478    
        4.955       4.429       3.898       3.361       2.819       2.270       1.715       1.154      0.5858      1.1553E-02
  10    9.990       9.507       9.019       8.528       8.032       7.532       7.027       6.518       6.004       5.485    
        4.963       4.435       3.902       3.364       2.820       2.271       1.715       1.154      0.5858      1.1554E-02

 HEAD WILL BE SAVED ON UNIT   51 AT END OF TIME STEP  21, STRESS PERIOD    3

 DRAWDOWN WILL BE SAVED ON UNIT   52 AT END OF TIME STEP  21, STRESS PERIOD    3
1
  VOLUMETRIC BUDGET FOR ENTIRE MODEL AT END OF TIME STEP 21 IN STRESS PERIOD   3
  ------------------------------------------------------------------------------

     CUMULATIVE VOLUMES      L**3       RATES FOR THIS TIME STEP      L**3/T
     ------------------                 ------------------------

           IN:                                      IN:
           ---                                      ---
             STORAGE =       10482.5723               STORAGE =         496.3512
       CONSTANT HEAD =           0.0000         CONSTANT HEAD =           0.0000
               WELLS =           0.0000                 WELLS =           0.0000
     HEAD DEP BOUNDS =       70493.7188       HEAD DEP BOUNDS =         580.5146

            TOTAL IN =       80976.2891              TOTAL IN =        1076.8657

          OUT:                                     OUT:
          ----                                     ----
             STORAGE =           0.1866               STORAGE =       7.6294E-05
       CONSTANT HEAD =           0.0000         CONSTANT HEAD =           0.0000
               WELLS =       10500.0000                 WELLS =         500.0000
     HEAD DEP BOUNDS =       70477.9453       HEAD DEP BOUNDS =         576.8698

           TOTAL OUT =       80978.1328             TOTAL OUT =        1076.8699

            IN - OUT =          -1.8438              IN - OUT =      -4.1504E-03

 PERCENT DISCREPANCY =           0.00     PERCENT DISCREPANCY =           0.00






          TIME SUMMARY AT END OF TIME STEP  21 IN STRESS PERIOD    3
                    SECONDS     MINUTES      HOURS       DAYS        YEARS
                    -----------------------------------------------------------
   TIME STEP LENGTH  86400.      1440.0      24.000      1.0000     2.73785E-03
 STRESS PERIOD TIME 1.81440E+06  30240.      504.00      21.000     5.74949E-02
         TOTAL TIME 1.05408E+07 1.75680E+05  2928.0      122.00     0.33402    
1
 
 SOLVING FOR HEAD 

 OUTPUT CONTROL FOR STRESS PERIOD    3   TIME STEP  22
    SAVE HEAD FOR ALL LAYERS
    SAVE DRAWDOWN FOR ALL LAYERS
    SAVE BUDGET
    PRINT HEAD FOR ALL LAYERS
    PRINT BUDGET
 UBDSV1 SAVING "         STORAGE" ON UNIT  53 AT TIME STEP 22, STRESS PERIOD   3
 UBDSV2 SAVING "   CONSTANT HEAD" ON UNIT  53 AT TIME STEP 22, STRESS PERIOD   3
 UBDSV1 SAVING "FLOW RIGHT FACE " ON UNIT  53 AT TIME STEP 22, STRESS PERIOD   3
 UBDSV1 SAVING "FLOW FRONT FACE " ON UNIT  53 AT TIME STEP 22, STRESS PERIOD   3
1
              HEAD IN LAYER   1 AT END OF TIME STEP  22 IN STRESS PERIOD    3
  ---------------------------------------------------------------------------

            1           2           3           4           5           6           7           8           9          10
           11          12          13          14          15          16          17          18          19          20
 ........................................................................................................................
   1    9.990       9.507       9.019       8.526       8.029       7.527       7.021       6.509       5.993       5.474    
        4.952       4.426       3.896       3.360       2.818       2.269       1.715       1.153      0.5857      1.1552E-02
   2    9.990       9.506       9.017       8.523       8.023       7.516       7.002       6.482       5.959       5.436    
        4.917       4.400       3.878       3.349       2.812       2.266       1.713       1.153      0.5855      1.1547E-02
   3    9.990       9.504       9.012       8.513       8.003       7.479       6.938       6.382       5.820       5.275    
        4.777       4.298       3.814       3.312       2.792       2.257       1.709       1.151      0.5848      1.1534E-02
   4    9.990       9.501       9.004       8.494       7.962       7.395       6.778       6.098       5.365       4.669    
        4.316       4.008       3.649       3.226       2.751       2.238       1.701       1.148      0.5837      1.1512E-02
   5    9.990       9.499       8.997       8.477       7.921       7.301       6.562       5.606       4.246       2.095    
        3.178       3.500       3.423       3.128       2.708       2.220       1.694       1.145      0.5828      1.1494E-02
   6    9.990       9.501       9.004       8.494       7.962       7.395       6.778       6.098       5.365       4.669    
        4.316       4.008       3.649       3.226       2.751       2.238       1.701       1.148      0.5837      1.1512E-02
   7    9.990       9.504       9.012       8.513       8.003       7.479       6.938       6.382       5.820       5.275    
        4.777       4.298       3.814       3.312       2.792       2.257       1.709       1.151      0.5848      1.1534E-02
   8    9.990       9.506       9.017       8.523       8.023       7.516       7.003       6.482       5.959       5.436    
        4.918       4.400       3.878       3.349       2.812       2.266       1.713       1.153      0.5855      1.1547E-02
   9    9.990       9.507       9.019       8.527       8.030       7.528       7.022       6.511       5.995       5.476    
        4.954       4.428       3.897       3.361       2.818       2.270       1.715       1.153      0.5858      1.1552E-02
  10    9.990       9.507       9.019       8.528       8.032       7.531       7.027       6.517       6.003       5.485    
        4.962       4.435       3.902       3.364       2.820       2.271       1.715       1.154      0.5858      1.1554E-02

 HEAD WILL BE SAVED ON UNIT   51 AT END OF TIME STEP  22, STRESS PERIOD    3

 DRAWDOWN WILL BE SAVED ON UNIT   52 AT END OF TIME STEP  22, STRESS PERIOD    3
1
  VOLUMETRIC BUDGET FOR ENTIRE MODEL AT END OF TIME STEP 22 IN STRESS PERIOD   3
  ------------------------------------------------------------------------------

     CUMULATIVE VOLUMES      L**3       RATES FOR THIS TIME STEP      L**3/T
     ------------------                 ------------------------

           IN:                                      IN:
           ---                                      ---
             STORAGE =       10978.2637               STORAGE =         495.6916
       CONSTANT HEAD =           0.0000         CONSTANT HEAD =           0.0000
               WELLS =           0.0000                 WELLS =           0.0000
     HEAD DEP BOUNDS =       71074.7109       HEAD DEP BOUNDS =         580.9915

            TOTAL IN =       82052.9766              TOTAL IN =        1076.6830

          OUT:                                     OUT:
          ----                                     ----
             STORAGE =           0.1866               STORAGE =       8.5831E-06
       CONSTANT HEAD =           0.0000         CONSTANT HEAD =           0.0000
               WELLS =       11000.0000                 WELLS =         500.0000
     HEAD DEP BOUNDS =       71054.6406       HEAD DEP BOUNDS =         576.6916

           TOTAL OUT =       82054.8281             TOTAL OUT =        1076.6917

            IN - OUT =          -1.8516              IN - OUT =      -8.6670E-03

 PERCENT DISCREPANCY =           0.00     PERCENT DISCREPANCY =           0.00






          TIME SUMMARY AT END OF TIME STEP  22 IN STRESS PERIOD    3
                    SECONDS     MINUTES      HOURS       DAYS        YEARS
                    -----------------------------------------------------------
   TIME STEP LENGTH  86400.      1440.0      24.000      1.0000     2.73785E-03
 STRESS PERIOD TIME 1.90080E+06  31680.      528.00      22.000     6.02327E-02
         TOTAL TIME 1.06272E+07 1.77120E+05  2952.0      123.00     0.33676    
1
 
 SOLVING FOR HEAD 

 OUTPUT CONTROL FOR STRESS PERIOD    3   TIME STEP  23
    SAVE HEAD FOR ALL LAYERS
    SAVE DRAWDOWN FOR ALL LAYERS
    SAVE BUDGET
    PRINT HEAD FOR ALL LAYERS
    PRINT BUDGET
 UBDSV1 SAVING "         STORAGE" ON UNIT  53 AT TIME STEP 23, STRESS PERIOD   3
 UBDSV2 SAVING "   CONSTANT HEAD" ON UNIT  53 AT TIME STEP 23, STRESS PERIOD   3
 UBDSV1 SAVING "FLOW RIGHT FACE " ON UNIT  53 AT TIME STEP 23, STRESS PERIOD   3
 UBDSV1 SAVING "FLOW FRONT FACE " ON UNIT  53 AT TIME STEP 23, STRESS PERIOD   3
1
              HEAD IN LAYER   1 AT END OF TIME STEP  23 IN STRESS PERIOD    3
  ---------------------------------------------------------------------------

            1           2           3           4           5           6           7           8           9          10
           11          12          13          14          15          16          17          18          19          20
 ........................................................................................................................
   1    9.990       9.506       9.018       8.526       8.029       7.527       7.019       6.507       5.992       5.472    
        4.950       4.425       3.895       3.359       2.817       2.269       1.714       1.153      0.5857      1.1551E-02
   2    9.990       9.506       9.017       8.522       8.021       7.514       6.999       6.478       5.954       5.431    
        4.913       4.396       3.875       3.347       2.810       2.266       1.713       1.153      0.5854      1.1545E-02
   3    9.990       9.504       9.011       8.511       7.999       7.474       6.930       6.371       5.807       5.262    
        4.765       4.288       3.805       3.306       2.789       2.255       1.708       1.150      0.5846      1.1530E-02
   4    9.990       9.500       9.002       8.490       7.955       7.384       6.763       6.077       5.340       4.642    
        4.291       3.986       3.633       3.215       2.744       2.234       1.698       1.146      0.5833      1.1503E-02
   5    9.990       9.497       8.994       8.471       7.912       7.286       6.541       5.578       4.212       2.057    
        3.142       3.470       3.401       3.113       2.699       2.215       1.691       1.144      0.5822      1.1484E-02
   6    9.990       9.500       9.002       8.490       7.955       7.384       6.763       6.077       5.340       4.642    
        4.291       3.986       3.633       3.215       2.744       2.234       1.698       1.146      0.5833      1.1503E-02
   7    9.990       9.504       9.011       8.511       7.999       7.474       6.930       6.371       5.807       5.262    
        4.765       4.288       3.805       3.306       2.789       2.255       1.708       1.150      0.5846      1.1530E-02
   8    9.990       9.506       9.017       8.522       8.022       7.514       6.999       6.479       5.954       5.431    
        4.913       4.396       3.875       3.347       2.811       2.266       1.713       1.153      0.5854      1.1546E-02
   9    9.990       9.507       9.019       8.526       8.029       7.528       7.021       6.509       5.994       5.475    
        4.953       4.427       3.896       3.360       2.818       2.269       1.715       1.153      0.5857      1.1552E-02
  10    9.990       9.507       9.019       8.528       8.032       7.531       7.026       6.517       6.003       5.485    
        4.962       4.434       3.902       3.364       2.820       2.271       1.715       1.154      0.5858      1.1554E-02

 HEAD WILL BE SAVED ON UNIT   51 AT END OF TIME STEP  23, STRESS PERIOD    3

 DRAWDOWN WILL BE SAVED ON UNIT   52 AT END OF TIME STEP  23, STRESS PERIOD    3
1
  VOLUMETRIC BUDGET FOR ENTIRE MODEL AT END OF TIME STEP 23 IN STRESS PERIOD   3
  ------------------------------------------------------------------------------

     CUMULATIVE VOLUMES      L**3       RATES FOR THIS TIME STEP      L**3/T
     ------------------                 ------------------------

           IN:                                      IN:
           ---                                      ---
             STORAGE =       11473.2314               STORAGE =         494.9678
       CONSTANT HEAD =           0.0000         CONSTANT HEAD =           0.0000
               WELLS =           0.0000                 WELLS =           0.0000
     HEAD DEP BOUNDS =       71656.2344       HEAD DEP BOUNDS =         581.5227

            TOTAL IN =       83129.4688              TOTAL IN =        1076.4905

          OUT:                                     OUT:
          ----                                     ----
             STORAGE =           0.1866               STORAGE =           0.0000
       CONSTANT HEAD =           0.0000         CONSTANT HEAD =           0.0000
               WELLS =       11500.0000                 WELLS =         500.0000
     HEAD DEP BOUNDS =       71631.1328       HEAD DEP BOUNDS =         576.4912

           TOTAL OUT =       83131.3203             TOTAL OUT =        1076.4912

            IN - OUT =          -1.8516              IN - OUT =      -7.3242E-04

 PERCENT DISCREPANCY =           0.00     PERCENT DISCREPANCY =           0.00






          TIME SUMMARY AT END OF TIME STEP  23 IN STRESS PERIOD    3
                    SECONDS     MINUTES      HOURS       DAYS        YEARS
                    -----------------------------------------------------------
   TIME STEP LENGTH  86400.      1440.0      24.000      1.0000     2.73785E-03
 STRESS PERIOD TIME 1.98720E+06  33120.      552.00      23.000     6.29706E-02
         TOTAL TIME 1.07136E+07 1.78560E+05  2976.0      124.00     0.33949    
1
 
 SOLVING FOR HEAD 

 OUTPUT CONTROL FOR STRESS PERIOD    3   TIME STEP  24
    SAVE HEAD FOR ALL LAYERS
    SAVE DRAWDOWN FOR ALL LAYERS
    SAVE BUDGET
    PRINT HEAD FOR ALL LAYERS
    PRINT BUDGET
 UBDSV1 SAVING "         STORAGE" ON UNIT  53 AT TIME STEP 24, STRESS PERIOD   3
 UBDSV2 SAVING "   CONSTANT HEAD" ON UNIT  53 AT TIME STEP 24, STRESS PERIOD   3
 UBDSV1 SAVING "FLOW RIGHT FACE " ON UNIT  53 AT TIME STEP 24, STRESS PERIOD   3
 UBDSV1 SAVING "FLOW FRONT FACE " ON UNIT  53 AT TIME STEP 24, STRESS PERIOD   3
1
              HEAD IN LAYER   1 AT END OF TIME STEP  24 IN STRESS PERIOD    3
  ---------------------------------------------------------------------------

            1           2           3           4           5           6           7           8           9          10
           11          12          13          14          15          16          17          18          19          20
 ........................................................................................................................
   1    9.990       9.506       9.018       8.526       8.028       7.526       7.018       6.506       5.990       5.470    
        4.949       4.423       3.894       3.358       2.817       2.269       1.714       1.153      0.5857      1.1550E-02
   2    9.990       9.505       9.016       8.521       8.020       7.512       6.996       6.474       5.949       5.426    
        4.908       4.391       3.872       3.345       2.809       2.265       1.712       1.152      0.5853      1.1543E-02
   3    9.990       9.503       9.010       8.509       7.996       7.468       6.922       6.361       5.795       5.249    
        4.753       4.277       3.797       3.301       2.785       2.252       1.706       1.150      0.5844      1.1525E-02
   4    9.990       9.499       9.000       8.485       7.948       7.373       6.747       6.056       5.315       4.616    
        4.266       3.965       3.617       3.204       2.736       2.229       1.696       1.145      0.5828      1.1494E-02
   5    9.990       9.496       8.991       8.466       7.903       7.272       6.520       5.551       4.179       2.020    
        3.109       3.442       3.380       3.098       2.689       2.209       1.688       1.142      0.5817      1.1472E-02
   6    9.990       9.499       9.000       8.485       7.948       7.374       6.747       6.056       5.315       4.616    
        4.266       3.965       3.617       3.204       2.736       2.229       1.696       1.145      0.5828      1.1494E-02
   7    9.990       9.503       9.010       8.509       7.996       7.468       6.922       6.361       5.795       5.249    
        4.753       4.277       3.797       3.301       2.785       2.253       1.706       1.150      0.5844      1.1525E-02
   8    9.990       9.505       9.016       8.521       8.020       7.512       6.996       6.474       5.950       5.426    
        4.908       4.392       3.872       3.345       2.809       2.265       1.712       1.152      0.5853      1.1544E-02
   9    9.990       9.506       9.018       8.526       8.029       7.527       7.020       6.508       5.992       5.473    
        4.951       4.426       3.895       3.360       2.818       2.269       1.714       1.153      0.5857      1.1551E-02
  10    9.990       9.507       9.019       8.527       8.031       7.531       7.026       6.516       6.002       5.484    
        4.961       4.434       3.901       3.363       2.820       2.270       1.715       1.154      0.5858      1.1553E-02

 HEAD WILL BE SAVED ON UNIT   51 AT END OF TIME STEP  24, STRESS PERIOD    3

 DRAWDOWN WILL BE SAVED ON UNIT   52 AT END OF TIME STEP  24, STRESS PERIOD    3
1
  VOLUMETRIC BUDGET FOR ENTIRE MODEL AT END OF TIME STEP 24 IN STRESS PERIOD   3
  ------------------------------------------------------------------------------

     CUMULATIVE VOLUMES      L**3       RATES FOR THIS TIME STEP      L**3/T
     ------------------                 ------------------------

           IN:                                      IN:
           ---                                      ---
             STORAGE =       11967.4053               STORAGE =         494.1741
       CONSTANT HEAD =           0.0000         CONSTANT HEAD =           0.0000
               WELLS =           0.0000                 WELLS =           0.0000
     HEAD DEP BOUNDS =       72238.3281       HEAD DEP BOUNDS =         582.0939

            TOTAL IN =       84205.7344              TOTAL IN =        1076.2681

          OUT:                                     OUT:
          ----                                     ----
             STORAGE =           0.1866               STORAGE =           0.0000
       CONSTANT HEAD =           0.0000         CONSTANT HEAD =           0.0000
               WELLS =       12000.0000                 WELLS =         500.0000
     HEAD DEP BOUNDS =       72207.3984       HEAD DEP BOUNDS =         576.2656

           TOTAL OUT =       84207.5859             TOTAL OUT =        1076.2656

            IN - OUT =          -1.8516              IN - OUT =       2.4414E-03

 PERCENT DISCREPANCY =           0.00     PERCENT DISCREPANCY =           0.00






          TIME SUMMARY AT END OF TIME STEP  24 IN STRESS PERIOD    3
                    SECONDS     MINUTES      HOURS       DAYS        YEARS
                    -----------------------------------------------------------
   TIME STEP LENGTH  86400.      1440.0      24.000      1.0000     2.73785E-03
 STRESS PERIOD TIME 2.07360E+06  34560.      576.00      24.000     6.57084E-02
         TOTAL TIME 1.08000E+07 1.80000E+05  3000.0      125.00     0.34223    
1
 
 SOLVING FOR HEAD 

 OUTPUT CONTROL FOR STRESS PERIOD    3   TIME STEP  25
    SAVE HEAD FOR ALL LAYERS
    SAVE DRAWDOWN FOR ALL LAYERS
    SAVE BUDGET
    PRINT HEAD FOR ALL LAYERS
    PRINT BUDGET
 UBDSV1 SAVING "         STORAGE" ON UNIT  53 AT TIME STEP 25, STRESS PERIOD   3
 UBDSV2 SAVING "   CONSTANT HEAD" ON UNIT  53 AT TIME STEP 25, STRESS PERIOD   3
 UBDSV1 SAVING "FLOW RIGHT FACE " ON UNIT  53 AT TIME STEP 25, STRESS PERIOD   3
 UBDSV1 SAVING "FLOW FRONT FACE " ON UNIT  53 AT TIME STEP 25, STRESS PERIOD   3
1
              HEAD IN LAYER   1 AT END OF TIME STEP  25 IN STRESS PERIOD    3
  ---------------------------------------------------------------------------

            1           2           3           4           5           6           7           8           9          10
           11          12          13          14          15          16          17          18          19          20
 ........................................................................................................................
   1    9.990       9.506       9.018       8.525       8.027       7.525       7.017       6.504       5.988       5.468    
        4.947       4.422       3.892       3.357       2.816       2.268       1.714       1.153      0.5856      1.1549E-02
   2    9.990       9.505       9.015       8.520       8.018       7.509       6.992       6.470       5.944       5.421    
        4.903       4.387       3.868       3.342       2.807       2.264       1.712       1.152      0.5852      1.1541E-02
   3    9.990       9.503       9.009       8.506       7.992       7.462       6.914       6.350       5.783       5.236    
        4.740       4.266       3.789       3.295       2.781       2.250       1.705       1.149      0.5841      1.1520E-02
   4    9.990       9.498       8.997       8.481       7.941       7.363       6.731       6.036       5.292       4.591    
        4.242       3.945       3.601       3.192       2.729       2.225       1.694       1.144      0.5823      1.1485E-02
   5    9.990       9.495       8.988       8.461       7.894       7.258       6.500       5.524       4.147       1.986    
        3.077       3.415       3.359       3.083       2.680       2.204       1.685       1.141      0.5810      1.1460E-02
   6    9.990       9.498       8.997       8.481       7.941       7.363       6.731       6.036       5.292       4.591    
        4.242       3.945       3.601       3.192       2.729       2.225       1.694       1.144      0.5823      1.1485E-02
   7    9.990       9.503       9.009       8.506       7.992       7.462       6.914       6.350       5.783       5.236    
        4.740       4.266       3.789       3.295       2.781       2.250       1.705       1.149      0.5841      1.1520E-02
   8    9.990       9.505       9.015       8.520       8.018       7.509       6.993       6.470       5.945       5.421    
        4.903       4.388       3.869       3.342       2.807       2.264       1.712       1.152      0.5852      1.1541E-02
   9    9.990       9.506       9.018       8.526       8.028       7.526       7.019       6.507       5.991       5.472    
        4.950       4.424       3.894       3.359       2.817       2.269       1.714       1.153      0.5857      1.1550E-02
  10    9.990       9.507       9.019       8.527       8.031       7.531       7.026       6.516       6.002       5.484    
        4.961       4.433       3.901       3.363       2.820       2.270       1.715       1.154      0.5858      1.1553E-02

 HEAD WILL BE SAVED ON UNIT   51 AT END OF TIME STEP  25, STRESS PERIOD    3

 DRAWDOWN WILL BE SAVED ON UNIT   52 AT END OF TIME STEP  25, STRESS PERIOD    3
1
  VOLUMETRIC BUDGET FOR ENTIRE MODEL AT END OF TIME STEP 25 IN STRESS PERIOD   3
  ------------------------------------------------------------------------------

     CUMULATIVE VOLUMES      L**3       RATES FOR THIS TIME STEP      L**3/T
     ------------------                 ------------------------

           IN:                                      IN:
           ---                                      ---
             STORAGE =       12460.7188               STORAGE =         493.3136
       CONSTANT HEAD =           0.0000         CONSTANT HEAD =           0.0000
               WELLS =           0.0000                 WELLS =           0.0000
     HEAD DEP BOUNDS =       72821.0391       HEAD DEP BOUNDS =         582.7113

            TOTAL IN =       85281.7578              TOTAL IN =        1076.0249

          OUT:                                     OUT:
          ----                                     ----
             STORAGE =           0.1866               STORAGE =           0.0000
       CONSTANT HEAD =           0.0000         CONSTANT HEAD =           0.0000
               WELLS =       12500.0000                 WELLS =         500.0000
     HEAD DEP BOUNDS =       72783.4141       HEAD DEP BOUNDS =         576.0170

           TOTAL OUT =       85283.6016             TOTAL OUT =        1076.0171

            IN - OUT =          -1.8438              IN - OUT =       7.8125E-03

 PERCENT DISCREPANCY =           0.00     PERCENT DISCREPANCY =           0.00






          TIME SUMMARY AT END OF TIME STEP  25 IN STRESS PERIOD    3
                    SECONDS     MINUTES      HOURS       DAYS        YEARS
                    -----------------------------------------------------------
   TIME STEP LENGTH  86400.      1440.0      24.000      1.0000     2.73785E-03
 STRESS PERIOD TIME 2.16000E+06  36000.      600.00      25.000     6.84463E-02
         TOTAL TIME 1.08864E+07 1.81440E+05  3024.0      126.00     0.34497    
1
 
 SOLVING FOR HEAD 

 OUTPUT CONTROL FOR STRESS PERIOD    3   TIME STEP  26
    SAVE HEAD FOR ALL LAYERS
    SAVE DRAWDOWN FOR ALL LAYERS
    SAVE BUDGET
    PRINT HEAD FOR ALL LAYERS
    PRINT BUDGET
 UBDSV1 SAVING "         STORAGE" ON UNIT  53 AT TIME STEP 26, STRESS PERIOD   3
 UBDSV2 SAVING "   CONSTANT HEAD" ON UNIT  53 AT TIME STEP 26, STRESS PERIOD   3
 UBDSV1 SAVING "FLOW RIGHT FACE " ON UNIT  53 AT TIME STEP 26, STRESS PERIOD   3
 UBDSV1 SAVING "FLOW FRONT FACE " ON UNIT  53 AT TIME STEP 26, STRESS PERIOD   3
1
              HEAD IN LAYER   1 AT END OF TIME STEP  26 IN STRESS PERIOD    3
  ---------------------------------------------------------------------------

            1           2           3           4           5           6           7           8           9          10
           11          12          13          14          15          16          17          18          19          20
 ........................................................................................................................
   1    9.990       9.506       9.018       8.525       8.027       7.523       7.015       6.502       5.985       5.466    
        4.944       4.420       3.891       3.356       2.815       2.268       1.714       1.153      0.5855      1.1548E-02
   2    9.990       9.505       9.015       8.519       8.016       7.506       6.989       6.465       5.939       5.415    
        4.898       4.383       3.865       3.340       2.806       2.263       1.711       1.152      0.5850      1.1538E-02
   3    9.990       9.502       9.007       8.504       7.988       7.456       6.906       6.340       5.770       5.223    
        4.728       4.255       3.780       3.288       2.777       2.248       1.704       1.148      0.5838      1.1514E-02
   4    9.990       9.497       8.995       8.477       7.933       7.352       6.716       6.017       5.269       4.566    
        4.219       3.924       3.585       3.181       2.721       2.220       1.691       1.143      0.5817      1.1474E-02
   5    9.990       9.494       8.985       8.455       7.885       7.244       6.481       5.499       4.117       1.953    
        3.046       3.389       3.339       3.068       2.670       2.198       1.681       1.139      0.5803      1.1446E-02
   6    9.990       9.497       8.995       8.477       7.933       7.352       6.716       6.017       5.269       4.566    
        4.219       3.924       3.585       3.181       2.721       2.220       1.691       1.143      0.5817      1.1474E-02
   7    9.990       9.502       9.007       8.504       7.988       7.456       6.906       6.340       5.771       5.223    
        4.728       4.256       3.780       3.288       2.777       2.248       1.704       1.148      0.5838      1.1514E-02
   8    9.990       9.505       9.015       8.519       8.017       7.507       6.989       6.466       5.940       5.416    
        4.898       4.383       3.865       3.340       2.806       2.263       1.711       1.152      0.5851      1.1539E-02
   9    9.990       9.506       9.018       8.525       8.028       7.525       7.018       6.505       5.989       5.470    
        4.948       4.423       3.893       3.358       2.816       2.268       1.714       1.153      0.5856      1.1549E-02
  10    9.990       9.507       9.019       8.527       8.031       7.530       7.025       6.515       6.001       5.483    
        4.960       4.433       3.900       3.363       2.819       2.270       1.715       1.154      0.5858      1.1553E-02

 HEAD WILL BE SAVED ON UNIT   51 AT END OF TIME STEP  26, STRESS PERIOD    3

 DRAWDOWN WILL BE SAVED ON UNIT   52 AT END OF TIME STEP  26, STRESS PERIOD    3
1
  VOLUMETRIC BUDGET FOR ENTIRE MODEL AT END OF TIME STEP 26 IN STRESS PERIOD   3
  ------------------------------------------------------------------------------

     CUMULATIVE VOLUMES      L**3       RATES FOR THIS TIME STEP      L**3/T
     ------------------                 ------------------------

           IN:                                      IN:
           ---                                      ---
             STORAGE =       12953.1016               STORAGE =         492.3828
       CONSTANT HEAD =           0.0000         CONSTANT HEAD =           0.0000
               WELLS =           0.0000                 WELLS =           0.0000
     HEAD DEP BOUNDS =       73404.3984       HEAD DEP BOUNDS =         583.3566

            TOTAL IN =       86357.5000              TOTAL IN =        1075.7394

          OUT:                                     OUT:
          ----                                     ----
             STORAGE =           0.1866               STORAGE =           0.0000
       CONSTANT HEAD =           0.0000         CONSTANT HEAD =           0.0000
               WELLS =       13000.0000                 WELLS =         500.0000
     HEAD DEP BOUNDS =       73359.1562       HEAD DEP BOUNDS =         575.7413

           TOTAL OUT =       86359.3438             TOTAL OUT =        1075.7413

            IN - OUT =          -1.8438              IN - OUT =      -1.9531E-03

 PERCENT DISCREPANCY =           0.00     PERCENT DISCREPANCY =           0.00






          TIME SUMMARY AT END OF TIME STEP  26 IN STRESS PERIOD    3
                    SECONDS     MINUTES      HOURS       DAYS        YEARS
                    -----------------------------------------------------------
   TIME STEP LENGTH  86400.      1440.0      24.000      1.0000     2.73785E-03
 STRESS PERIOD TIME 2.24640E+06  37440.      624.00      26.000     7.11841E-02
         TOTAL TIME 1.09728E+07 1.82880E+05  3048.0      127.00     0.34771    
1
 
 SOLVING FOR HEAD 

 OUTPUT CONTROL FOR STRESS PERIOD    3   TIME STEP  27
    SAVE HEAD FOR ALL LAYERS
    SAVE DRAWDOWN FOR ALL LAYERS
    SAVE BUDGET
    PRINT HEAD FOR ALL LAYERS
    PRINT BUDGET
 UBDSV1 SAVING "         STORAGE" ON UNIT  53 AT TIME STEP 27, STRESS PERIOD   3
 UBDSV2 SAVING "   CONSTANT HEAD" ON UNIT  53 AT TIME STEP 27, STRESS PERIOD   3
 UBDSV1 SAVING "FLOW RIGHT FACE " ON UNIT  53 AT TIME STEP 27, STRESS PERIOD   3
 UBDSV1 SAVING "FLOW FRONT FACE " ON UNIT  53 AT TIME STEP 27, STRESS PERIOD   3
1
              HEAD IN LAYER   1 AT END OF TIME STEP  27 IN STRESS PERIOD    3
  ---------------------------------------------------------------------------

            1           2           3           4           5           6           7           8           9          10
           11          12          13          14          15          16          17          18          19          20
 ........................................................................................................................
   1    9.990       9.506       9.017       8.524       8.026       7.522       7.014       6.500       5.983       5.464    
        4.942       4.418       3.889       3.355       2.815       2.267       1.713       1.153      0.5855      1.1547E-02
   2    9.990       9.505       9.014       8.518       8.015       7.504       6.985       6.461       5.934       5.410    
        4.892       4.378       3.861       3.337       2.804       2.261       1.710       1.151      0.5849      1.1535E-02
   3    9.990       9.501       9.006       8.501       7.983       7.450       6.897       6.329       5.758       5.210    
        4.715       4.245       3.771       3.282       2.773       2.245       1.702       1.148      0.5834      1.1507E-02
   4    9.990       9.496       8.992       8.472       7.926       7.341       6.701       5.998       5.247       4.543    
        4.196       3.905       3.569       3.170       2.714       2.216       1.688       1.141      0.5811      1.1462E-02
   5    9.990       9.492       8.982       8.449       7.876       7.231       6.462       5.475       4.088       1.921    
        3.016       3.363       3.319       3.054       2.661       2.192       1.678       1.137      0.5796      1.1432E-02
   6    9.990       9.496       8.992       8.472       7.926       7.341       6.701       5.998       5.247       4.543    
        4.196       3.905       3.569       3.170       2.714       2.216       1.688       1.141      0.5811      1.1462E-02
   7    9.990       9.501       9.006       8.501       7.983       7.450       6.897       6.329       5.758       5.211    
        4.716       4.245       3.772       3.282       2.773       2.245       1.702       1.148      0.5834      1.1507E-02
   8    9.990       9.505       9.014       8.518       8.015       7.504       6.986       6.461       5.935       5.411    
        4.893       4.379       3.861       3.337       2.804       2.262       1.710       1.151      0.5849      1.1536E-02
   9    9.990       9.506       9.018       8.525       8.027       7.524       7.016       6.504       5.987       5.468    
        4.946       4.421       3.892       3.357       2.816       2.268       1.714       1.153      0.5856      1.1548E-02
  10    9.990       9.507       9.019       8.527       8.031       7.530       7.025       6.515       6.001       5.482    
        4.960       4.432       3.900       3.362       2.819       2.270       1.715       1.153      0.5858      1.1552E-02

 HEAD WILL BE SAVED ON UNIT   51 AT END OF TIME STEP  27, STRESS PERIOD    3

 DRAWDOWN WILL BE SAVED ON UNIT   52 AT END OF TIME STEP  27, STRESS PERIOD    3
1
  VOLUMETRIC BUDGET FOR ENTIRE MODEL AT END OF TIME STEP 27 IN STRESS PERIOD   3
  ------------------------------------------------------------------------------

     CUMULATIVE VOLUMES      L**3       RATES FOR THIS TIME STEP      L**3/T
     ------------------                 ------------------------

           IN:                                      IN:
           ---                                      ---
             STORAGE =       13444.4971               STORAGE =         491.3954
       CONSTANT HEAD =           0.0000         CONSTANT HEAD =           0.0000
               WELLS =           0.0000                 WELLS =           0.0000
     HEAD DEP BOUNDS =       73988.4453       HEAD DEP BOUNDS =         584.0459

            TOTAL IN =       87432.9453              TOTAL IN =        1075.4413

          OUT:                                     OUT:
          ----                                     ----
             STORAGE =           0.1866               STORAGE =           0.0000
       CONSTANT HEAD =           0.0000         CONSTANT HEAD =           0.0000
               WELLS =       13500.0000                 WELLS =         500.0000
     HEAD DEP BOUNDS =       73934.6016       HEAD DEP BOUNDS =         575.4415

           TOTAL OUT =       87434.7891             TOTAL OUT =        1075.4415

            IN - OUT =          -1.8438              IN - OUT =      -2.4414E-04

 PERCENT DISCREPANCY =           0.00     PERCENT DISCREPANCY =           0.00






          TIME SUMMARY AT END OF TIME STEP  27 IN STRESS PERIOD    3
                    SECONDS     MINUTES      HOURS       DAYS        YEARS
                    -----------------------------------------------------------
   TIME STEP LENGTH  86400.      1440.0      24.000      1.0000     2.73785E-03
 STRESS PERIOD TIME 2.33280E+06  38880.      648.00      27.000     7.39220E-02
         TOTAL TIME 1.10592E+07 1.84320E+05  3072.0      128.00     0.35044    
1
 
 SOLVING FOR HEAD 

 OUTPUT CONTROL FOR STRESS PERIOD    3   TIME STEP  28
    SAVE HEAD FOR ALL LAYERS
    SAVE DRAWDOWN FOR ALL LAYERS
    SAVE BUDGET
    PRINT HEAD FOR ALL LAYERS
    PRINT BUDGET
 UBDSV1 SAVING "         STORAGE" ON UNIT  53 AT TIME STEP 28, STRESS PERIOD   3
 UBDSV2 SAVING "   CONSTANT HEAD" ON UNIT  53 AT TIME STEP 28, STRESS PERIOD   3
 UBDSV1 SAVING "FLOW RIGHT FACE " ON UNIT  53 AT TIME STEP 28, STRESS PERIOD   3
 UBDSV1 SAVING "FLOW FRONT FACE " ON UNIT  53 AT TIME STEP 28, STRESS PERIOD   3
1
              HEAD IN LAYER   1 AT END OF TIME STEP  28 IN STRESS PERIOD    3
  ---------------------------------------------------------------------------

            1           2           3           4           5           6           7           8           9          10
           11          12          13          14          15          16          17          18          19          20
 ........................................................................................................................
   1    9.990       9.506       9.017       8.523       8.025       7.521       7.012       6.498       5.981       5.461    
        4.940       4.416       3.888       3.354       2.814       2.267       1.713       1.153      0.5854      1.1545E-02
   2    9.990       9.504       9.013       8.516       8.013       7.501       6.981       6.456       5.928       5.404    
        4.887       4.373       3.857       3.334       2.802       2.260       1.710       1.151      0.5847      1.1532E-02
   3    9.990       9.500       9.004       8.498       7.979       7.443       6.889       6.319       5.746       5.198    
        4.703       4.234       3.763       3.276       2.768       2.242       1.700       1.147      0.5831      1.1500E-02
   4    9.990       9.495       8.989       8.467       7.918       7.330       6.686       5.979       5.225       4.520    
        4.174       3.885       3.554       3.158       2.706       2.211       1.685       1.140      0.5805      1.1449E-02
   5    9.990       9.491       8.979       8.444       7.866       7.217       6.443       5.451       4.060       1.890    
        2.988       3.339       3.299       3.039       2.651       2.186       1.674       1.135      0.5788      1.1416E-02
   6    9.990       9.495       8.989       8.467       7.918       7.330       6.686       5.979       5.225       4.520    
        4.174       3.885       3.554       3.158       2.706       2.211       1.685       1.140      0.5805      1.1449E-02
   7    9.990       9.501       9.004       8.498       7.979       7.443       6.889       6.319       5.746       5.198    
        4.703       4.234       3.763       3.276       2.768       2.242       1.701       1.147      0.5831      1.1500E-02
   8    9.990       9.504       9.013       8.517       8.013       7.501       6.982       6.457       5.929       5.405    
        4.888       4.374       3.858       3.334       2.802       2.260       1.710       1.151      0.5847      1.1532E-02
   9    9.990       9.506       9.017       8.524       8.026       7.523       7.015       6.502       5.985       5.466    
        4.944       4.420       3.891       3.356       2.815       2.268       1.714       1.153      0.5855      1.1547E-02
  10    9.990       9.507       9.019       8.527       8.030       7.530       7.024       6.514       6.000       5.482    
        4.959       4.432       3.900       3.362       2.819       2.270       1.715       1.153      0.5857      1.1552E-02

 HEAD WILL BE SAVED ON UNIT   51 AT END OF TIME STEP  28, STRESS PERIOD    3

 DRAWDOWN WILL BE SAVED ON UNIT   52 AT END OF TIME STEP  28, STRESS PERIOD    3
1
  VOLUMETRIC BUDGET FOR ENTIRE MODEL AT END OF TIME STEP 28 IN STRESS PERIOD   3
  ------------------------------------------------------------------------------

     CUMULATIVE VOLUMES      L**3       RATES FOR THIS TIME STEP      L**3/T
     ------------------                 ------------------------

           IN:                                      IN:
           ---                                      ---
             STORAGE =       13934.8350               STORAGE =         490.3375
       CONSTANT HEAD =           0.0000         CONSTANT HEAD =           0.0000
               WELLS =           0.0000                 WELLS =           0.0000
     HEAD DEP BOUNDS =       74573.2344       HEAD DEP BOUNDS =         584.7858

            TOTAL IN =       88508.0703              TOTAL IN =        1075.1233

          OUT:                                     OUT:
          ----                                     ----
             STORAGE =           0.1866               STORAGE =           0.0000
       CONSTANT HEAD =           0.0000         CONSTANT HEAD =           0.0000
               WELLS =       14000.0000                 WELLS =         500.0000
     HEAD DEP BOUNDS =       74509.7188       HEAD DEP BOUNDS =         575.1158

           TOTAL OUT =       88509.9062             TOTAL OUT =        1075.1158

            IN - OUT =          -1.8359              IN - OUT =       7.4463E-03

 PERCENT DISCREPANCY =           0.00     PERCENT DISCREPANCY =           0.00






          TIME SUMMARY AT END OF TIME STEP  28 IN STRESS PERIOD    3
                    SECONDS     MINUTES      HOURS       DAYS        YEARS
                    -----------------------------------------------------------
   TIME STEP LENGTH  86400.      1440.0      24.000      1.0000     2.73785E-03
 STRESS PERIOD TIME 2.41920E+06  40320.      672.00      28.000     7.66598E-02
         TOTAL TIME 1.11456E+07 1.85760E+05  3096.0      129.00     0.35318    
1
 
 SOLVING FOR HEAD 

 OUTPUT CONTROL FOR STRESS PERIOD    3   TIME STEP  29
    SAVE HEAD FOR ALL LAYERS
    SAVE DRAWDOWN FOR ALL LAYERS
    SAVE BUDGET
    PRINT HEAD FOR ALL LAYERS
    PRINT BUDGET
 UBDSV1 SAVING "         STORAGE" ON UNIT  53 AT TIME STEP 29, STRESS PERIOD   3
 UBDSV2 SAVING "   CONSTANT HEAD" ON UNIT  53 AT TIME STEP 29, STRESS PERIOD   3
 UBDSV1 SAVING "FLOW RIGHT FACE " ON UNIT  53 AT TIME STEP 29, STRESS PERIOD   3
 UBDSV1 SAVING "FLOW FRONT FACE " ON UNIT  53 AT TIME STEP 29, STRESS PERIOD   3
1
              HEAD IN LAYER   1 AT END OF TIME STEP  29 IN STRESS PERIOD    3
  ---------------------------------------------------------------------------

            1           2           3           4           5           6           7           8           9          10
           11          12          13          14          15          16          17          18          19          20
 ........................................................................................................................
   1    9.990       9.506       9.017       8.523       8.024       7.519       7.010       6.496       5.978       5.459    
        4.937       4.414       3.886       3.352       2.813       2.266       1.713       1.152      0.5853      1.1543E-02
   2    9.990       9.504       9.013       8.515       8.010       7.498       6.977       6.451       5.923       5.398    
        4.882       4.368       3.853       3.331       2.800       2.259       1.709       1.150      0.5845      1.1528E-02
   3    9.990       9.500       9.002       8.495       7.975       7.437       6.880       6.308       5.734       5.185    
        4.691       4.223       3.754       3.269       2.764       2.239       1.699       1.146      0.5827      1.1492E-02
   4    9.990       9.493       8.987       8.463       7.911       7.319       6.672       5.961       5.204       4.497    
        4.153       3.866       3.538       3.147       2.698       2.206       1.682       1.138      0.5798      1.1436E-02
   5    9.990       9.489       8.976       8.438       7.857       7.204       6.425       5.428       4.033       1.861    
        2.961       3.315       3.280       3.025       2.641       2.180       1.671       1.133      0.5780      1.1400E-02
   6    9.990       9.493       8.987       8.463       7.911       7.319       6.672       5.961       5.204       4.497    
        4.153       3.867       3.538       3.147       2.698       2.206       1.682       1.138      0.5798      1.1436E-02
   7    9.990       9.500       9.003       8.495       7.975       7.437       6.880       6.308       5.734       5.185    
        4.691       4.223       3.754       3.269       2.764       2.239       1.699       1.146      0.5827      1.1492E-02
   8    9.990       9.504       9.013       8.515       8.011       7.498       6.978       6.452       5.924       5.400    
        4.883       4.369       3.854       3.331       2.800       2.259       1.709       1.151      0.5846      1.1529E-02
   9    9.990       9.506       9.017       8.524       8.026       7.522       7.013       6.500       5.984       5.464    
        4.942       4.418       3.889       3.355       2.814       2.267       1.713       1.153      0.5854      1.1546E-02
  10    9.990       9.507       9.019       8.527       8.030       7.529       7.024       6.514       5.999       5.481    
        4.958       4.431       3.899       3.362       2.819       2.270       1.715       1.153      0.5857      1.1551E-02

 HEAD WILL BE SAVED ON UNIT   51 AT END OF TIME STEP  29, STRESS PERIOD    3

 DRAWDOWN WILL BE SAVED ON UNIT   52 AT END OF TIME STEP  29, STRESS PERIOD    3
1
  VOLUMETRIC BUDGET FOR ENTIRE MODEL AT END OF TIME STEP 29 IN STRESS PERIOD   3
  ------------------------------------------------------------------------------

     CUMULATIVE VOLUMES      L**3       RATES FOR THIS TIME STEP      L**3/T
     ------------------                 ------------------------

           IN:                                      IN:
           ---                                      ---
             STORAGE =       14424.0488               STORAGE =         489.2141
       CONSTANT HEAD =           0.0000         CONSTANT HEAD =           0.0000
               WELLS =           0.0000                 WELLS =           0.0000
     HEAD DEP BOUNDS =       75158.7812       HEAD DEP BOUNDS =         585.5499

            TOTAL IN =       89582.8281              TOTAL IN =        1074.7639

          OUT:                                     OUT:
          ----                                     ----
             STORAGE =           0.1866               STORAGE =           0.0000
       CONSTANT HEAD =           0.0000         CONSTANT HEAD =           0.0000
               WELLS =       14500.0000                 WELLS =         500.0000
     HEAD DEP BOUNDS =       75084.4844       HEAD DEP BOUNDS =         574.7648

           TOTAL OUT =       89584.6719             TOTAL OUT =        1074.7649

            IN - OUT =          -1.8438              IN - OUT =      -9.7656E-04

 PERCENT DISCREPANCY =           0.00     PERCENT DISCREPANCY =           0.00






          TIME SUMMARY AT END OF TIME STEP  29 IN STRESS PERIOD    3
                    SECONDS     MINUTES      HOURS       DAYS        YEARS
                    -----------------------------------------------------------
   TIME STEP LENGTH  86400.      1440.0      24.000      1.0000     2.73785E-03
 STRESS PERIOD TIME 2.50560E+06  41760.      696.00      29.000     7.93977E-02
         TOTAL TIME 1.12320E+07 1.87200E+05  3120.0      130.00     0.35592    
1
 
 SOLVING FOR HEAD 

 OUTPUT CONTROL FOR STRESS PERIOD    3   TIME STEP  30
    SAVE HEAD FOR ALL LAYERS
    SAVE DRAWDOWN FOR ALL LAYERS
    SAVE BUDGET
    PRINT HEAD FOR ALL LAYERS
    PRINT BUDGET
 UBDSV1 SAVING "         STORAGE" ON UNIT  53 AT TIME STEP 30, STRESS PERIOD   3
 UBDSV2 SAVING "   CONSTANT HEAD" ON UNIT  53 AT TIME STEP 30, STRESS PERIOD   3
 UBDSV1 SAVING "FLOW RIGHT FACE " ON UNIT  53 AT TIME STEP 30, STRESS PERIOD   3
 UBDSV1 SAVING "FLOW FRONT FACE " ON UNIT  53 AT TIME STEP 30, STRESS PERIOD   3
1
              HEAD IN LAYER   1 AT END OF TIME STEP  30 IN STRESS PERIOD    3
  ---------------------------------------------------------------------------

            1           2           3           4           5           6           7           8           9          10
           11          12          13          14          15          16          17          18          19          20
 ........................................................................................................................
   1    9.990       9.505       9.016       8.522       8.023       7.518       7.008       6.493       5.976       5.456    
        4.935       4.411       3.884       3.351       2.812       2.266       1.712       1.152      0.5852      1.1541E-02
   2    9.990       9.503       9.012       8.514       8.008       7.495       6.973       6.446       5.917       5.393    
        4.876       4.363       3.849       3.328       2.797       2.257       1.708       1.150      0.5843      1.1524E-02
   3    9.990       9.499       9.001       8.492       7.970       7.430       6.872       6.298       5.722       5.172    
        4.679       4.212       3.745       3.262       2.759       2.236       1.697       1.145      0.5822      1.1483E-02
   4    9.990       9.492       8.984       8.458       7.903       7.308       6.657       5.943       5.183       4.476    
        4.132       3.848       3.523       3.135       2.690       2.201       1.679       1.137      0.5791      1.1422E-02
   5    9.990       9.488       8.972       8.432       7.848       7.190       6.407       5.406       4.008       1.833    
        2.934       3.292       3.261       3.011       2.632       2.173       1.667       1.131      0.5771      1.1383E-02
   6    9.990       9.492       8.984       8.458       7.903       7.308       6.657       5.943       5.183       4.476    
        4.132       3.848       3.523       3.135       2.690       2.201       1.679       1.137      0.5791      1.1422E-02
   7    9.990       9.499       9.001       8.492       7.970       7.430       6.872       6.298       5.722       5.173    
        4.679       4.213       3.745       3.263       2.759       2.236       1.697       1.145      0.5822      1.1483E-02
   8    9.990       9.504       9.012       8.514       8.009       7.495       6.974       6.447       5.919       5.394    
        4.877       4.365       3.850       3.328       2.798       2.258       1.708       1.150      0.5844      1.1525E-02
   9    9.990       9.506       9.017       8.523       8.025       7.521       7.012       6.498       5.981       5.462    
        4.940       4.416       3.888       3.354       2.814       2.267       1.713       1.152      0.5853      1.1544E-02
  10    9.990       9.506       9.019       8.526       8.030       7.529       7.023       6.513       5.998       5.480    
        4.957       4.430       3.898       3.361       2.818       2.269       1.715       1.153      0.5857      1.1551E-02

 HEAD WILL BE SAVED ON UNIT   51 AT END OF TIME STEP  30, STRESS PERIOD    3

 DRAWDOWN WILL BE SAVED ON UNIT   52 AT END OF TIME STEP  30, STRESS PERIOD    3
1
  VOLUMETRIC BUDGET FOR ENTIRE MODEL AT END OF TIME STEP 30 IN STRESS PERIOD   3
  ------------------------------------------------------------------------------

     CUMULATIVE VOLUMES      L**3       RATES FOR THIS TIME STEP      L**3/T
     ------------------                 ------------------------

           IN:                                      IN:
           ---                                      ---
             STORAGE =       14912.0801               STORAGE =         488.0310
       CONSTANT HEAD =           0.0000         CONSTANT HEAD =           0.0000
               WELLS =           0.0000                 WELLS =           0.0000
     HEAD DEP BOUNDS =       75745.1406       HEAD DEP BOUNDS =         586.3579

            TOTAL IN =       90657.2188              TOTAL IN =        1074.3889

          OUT:                                     OUT:
          ----                                     ----
             STORAGE =           0.1866               STORAGE =           0.0000
       CONSTANT HEAD =           0.0000         CONSTANT HEAD =           0.0000
               WELLS =       15000.0000                 WELLS =         500.0000
     HEAD DEP BOUNDS =       75658.8750       HEAD DEP BOUNDS =         574.3881

           TOTAL OUT =       90659.0625             TOTAL OUT =        1074.3882

            IN - OUT =          -1.8438              IN - OUT =       7.3242E-04

 PERCENT DISCREPANCY =           0.00     PERCENT DISCREPANCY =           0.00






          TIME SUMMARY AT END OF TIME STEP  30 IN STRESS PERIOD    3
                    SECONDS     MINUTES      HOURS       DAYS        YEARS
                    -----------------------------------------------------------
   TIME STEP LENGTH  86400.      1440.0      24.000      1.0000     2.73785E-03
 STRESS PERIOD TIME 2.59200E+06  43200.      720.00      30.000     8.21355E-02
         TOTAL TIME 1.13184E+07 1.88640E+05  3144.0      131.00     0.35866    
1
 
 SOLVING FOR HEAD 

 OUTPUT CONTROL FOR STRESS PERIOD    3   TIME STEP  31
    SAVE HEAD FOR ALL LAYERS
    SAVE DRAWDOWN FOR ALL LAYERS
    SAVE BUDGET
    PRINT HEAD FOR ALL LAYERS
    PRINT BUDGET
 UBDSV1 SAVING "         STORAGE" ON UNIT  53 AT TIME STEP 31, STRESS PERIOD   3
 UBDSV2 SAVING "   CONSTANT HEAD" ON UNIT  53 AT TIME STEP 31, STRESS PERIOD   3
 UBDSV1 SAVING "FLOW RIGHT FACE " ON UNIT  53 AT TIME STEP 31, STRESS PERIOD   3
 UBDSV1 SAVING "FLOW FRONT FACE " ON UNIT  53 AT TIME STEP 31, STRESS PERIOD   3
1
              HEAD IN LAYER   1 AT END OF TIME STEP  31 IN STRESS PERIOD    3
  ---------------------------------------------------------------------------

            1           2           3           4           5           6           7           8           9          10
           11          12          13          14          15          16          17          18          19          20
 ........................................................................................................................
   1    9.990       9.505       9.016       8.521       8.022       7.516       7.006       6.491       5.973       5.453    
        4.932       4.409       3.882       3.349       2.811       2.265       1.712       1.152      0.5851      1.1539E-02
   2    9.990       9.503       9.011       8.512       8.006       7.492       6.969       6.441       5.912       5.387    
        4.870       4.358       3.845       3.325       2.795       2.256       1.707       1.149      0.5841      1.1520E-02
   3    9.990       9.498       8.999       8.489       7.965       7.424       6.863       6.287       5.710       5.160    
        4.667       4.202       3.736       3.256       2.754       2.233       1.695       1.144      0.5818      1.1474E-02
   4    9.990       9.491       8.981       8.453       7.896       7.297       6.643       5.925       5.163       4.454    
        4.111       3.830       3.508       3.124       2.682       2.195       1.676       1.135      0.5783      1.1407E-02
   5    9.990       9.486       8.969       8.426       7.839       7.177       6.390       5.384       3.983       1.805    
        2.908       3.270       3.243       2.998       2.622       2.167       1.663       1.129      0.5762      1.1365E-02
   6    9.990       9.491       8.981       8.453       7.896       7.297       6.643       5.925       5.163       4.455    
        4.111       3.830       3.508       3.124       2.682       2.195       1.676       1.135      0.5783      1.1407E-02
   7    9.990       9.498       8.999       8.489       7.966       7.424       6.863       6.287       5.710       5.160    
        4.667       4.202       3.737       3.256       2.754       2.233       1.695       1.144      0.5818      1.1474E-02
   8    9.990       9.503       9.011       8.512       8.006       7.492       6.970       6.442       5.913       5.388    
        4.872       4.360       3.846       3.325       2.796       2.256       1.707       1.150      0.5841      1.1520E-02
   9    9.990       9.506       9.016       8.523       8.024       7.520       7.010       6.497       5.979       5.460    
        4.938       4.414       3.886       3.353       2.813       2.266       1.713       1.152      0.5853      1.1542E-02
  10    9.990       9.506       9.018       8.526       8.029       7.528       7.022       6.512       5.998       5.479    
        4.956       4.430       3.898       3.361       2.818       2.269       1.714       1.153      0.5856      1.1550E-02

 HEAD WILL BE SAVED ON UNIT   51 AT END OF TIME STEP  31, STRESS PERIOD    3

 DRAWDOWN WILL BE SAVED ON UNIT   52 AT END OF TIME STEP  31, STRESS PERIOD    3
1
  VOLUMETRIC BUDGET FOR ENTIRE MODEL AT END OF TIME STEP 31 IN STRESS PERIOD   3
  ------------------------------------------------------------------------------

     CUMULATIVE VOLUMES      L**3       RATES FOR THIS TIME STEP      L**3/T
     ------------------                 ------------------------

           IN:                                      IN:
           ---                                      ---
             STORAGE =       15398.8662               STORAGE =         486.7858
       CONSTANT HEAD =           0.0000         CONSTANT HEAD =           0.0000
               WELLS =           0.0000                 WELLS =           0.0000
     HEAD DEP BOUNDS =       76332.3359       HEAD DEP BOUNDS =         587.1980

            TOTAL IN =       91731.2031              TOTAL IN =        1073.9839

          OUT:                                     OUT:
          ----                                     ----
             STORAGE =           0.1866               STORAGE =           0.0000
       CONSTANT HEAD =           0.0000         CONSTANT HEAD =           0.0000
               WELLS =       15500.0000                 WELLS =         500.0000
     HEAD DEP BOUNDS =       76232.8594       HEAD DEP BOUNDS =         573.9843

           TOTAL OUT =       91733.0469             TOTAL OUT =        1073.9844

            IN - OUT =          -1.8438              IN - OUT =      -4.8828E-04

 PERCENT DISCREPANCY =           0.00     PERCENT DISCREPANCY =           0.00






          TIME SUMMARY AT END OF TIME STEP  31 IN STRESS PERIOD    3
                    SECONDS     MINUTES      HOURS       DAYS        YEARS
                    -----------------------------------------------------------
   TIME STEP LENGTH  86400.      1440.0      24.000      1.0000     2.73785E-03
 STRESS PERIOD TIME 2.67840E+06  44640.      744.00      31.000     8.48734E-02
         TOTAL TIME 1.14048E+07 1.90080E+05  3168.0      132.00     0.36140    
1
 
 SOLVING FOR HEAD 

 OUTPUT CONTROL FOR STRESS PERIOD    3   TIME STEP  32
    SAVE HEAD FOR ALL LAYERS
    SAVE DRAWDOWN FOR ALL LAYERS
    SAVE BUDGET
    PRINT HEAD FOR ALL LAYERS
    PRINT BUDGET
 UBDSV1 SAVING "         STORAGE" ON UNIT  53 AT TIME STEP 32, STRESS PERIOD   3
 UBDSV2 SAVING "   CONSTANT HEAD" ON UNIT  53 AT TIME STEP 32, STRESS PERIOD   3
 UBDSV1 SAVING "FLOW RIGHT FACE " ON UNIT  53 AT TIME STEP 32, STRESS PERIOD   3
 UBDSV1 SAVING "FLOW FRONT FACE " ON UNIT  53 AT TIME STEP 32, STRESS PERIOD   3
1
              HEAD IN LAYER   1 AT END OF TIME STEP  32 IN STRESS PERIOD    3
  ---------------------------------------------------------------------------

            1           2           3           4           5           6           7           8           9          10
           11          12          13          14          15          16          17          18          19          20
 ........................................................................................................................
   1    9.990       9.505       9.015       8.520       8.020       7.515       7.004       6.488       5.970       5.450    
        4.929       4.406       3.880       3.348       2.809       2.264       1.711       1.152      0.5850      1.1537E-02
   2    9.990       9.503       9.010       8.510       8.003       7.488       6.965       6.436       5.906       5.381    
        4.864       4.353       3.841       3.321       2.793       2.254       1.706       1.149      0.5838      1.1515E-02
   3    9.990       9.497       8.997       8.486       7.961       7.417       6.854       6.277       5.698       5.148    
        4.655       4.191       3.728       3.249       2.749       2.230       1.693       1.143      0.5813      1.1464E-02
   4    9.990       9.489       8.978       8.448       7.888       7.286       6.629       5.908       5.143       4.434    
        4.091       3.812       3.494       3.113       2.674       2.190       1.673       1.133      0.5775      1.1391E-02
   5    9.990       9.484       8.965       8.420       7.830       7.165       6.373       5.363       3.958       1.779    
        2.884       3.248       3.225       2.984       2.612       2.161       1.659       1.127      0.5752      1.1346E-02
   6    9.990       9.489       8.978       8.448       7.888       7.286       6.629       5.908       5.143       4.434    
        4.092       3.812       3.494       3.113       2.674       2.190       1.673       1.133      0.5775      1.1391E-02
   7    9.990       9.497       8.997       8.486       7.961       7.417       6.855       6.277       5.699       5.148    
        4.655       4.191       3.728       3.249       2.749       2.230       1.693       1.143      0.5813      1.1464E-02
   8    9.990       9.503       9.010       8.511       8.004       7.489       6.966       6.437       5.908       5.382    
        4.866       4.355       3.842       3.322       2.793       2.255       1.706       1.149      0.5839      1.1516E-02
   9    9.990       9.505       9.016       8.522       8.023       7.518       7.009       6.495       5.977       5.457    
        4.936       4.412       3.884       3.351       2.812       2.265       1.712       1.152      0.5852      1.1540E-02
  10    9.990       9.506       9.018       8.526       8.029       7.528       7.022       6.511       5.997       5.478    
        4.956       4.429       3.897       3.360       2.818       2.269       1.714       1.153      0.5856      1.1549E-02

 HEAD WILL BE SAVED ON UNIT   51 AT END OF TIME STEP  32, STRESS PERIOD    3

 DRAWDOWN WILL BE SAVED ON UNIT   52 AT END OF TIME STEP  32, STRESS PERIOD    3
1
  VOLUMETRIC BUDGET FOR ENTIRE MODEL AT END OF TIME STEP 32 IN STRESS PERIOD   3
  ------------------------------------------------------------------------------

     CUMULATIVE VOLUMES      L**3       RATES FOR THIS TIME STEP      L**3/T
     ------------------                 ------------------------

           IN:                                      IN:
           ---                                      ---
             STORAGE =       15884.3496               STORAGE =         485.4832
       CONSTANT HEAD =           0.0000         CONSTANT HEAD =           0.0000
               WELLS =           0.0000                 WELLS =           0.0000
     HEAD DEP BOUNDS =       76920.4062       HEAD DEP BOUNDS =         588.0720

            TOTAL IN =       92804.7578              TOTAL IN =        1073.5552

          OUT:                                     OUT:
          ----                                     ----
             STORAGE =           0.1866               STORAGE =           0.0000
       CONSTANT HEAD =           0.0000         CONSTANT HEAD =           0.0000
               WELLS =       16000.0000                 WELLS =         500.0000
     HEAD DEP BOUNDS =       76806.4141       HEAD DEP BOUNDS =         573.5551

           TOTAL OUT =       92806.6016             TOTAL OUT =        1073.5551

            IN - OUT =          -1.8438              IN - OUT =       1.2207E-04

 PERCENT DISCREPANCY =           0.00     PERCENT DISCREPANCY =           0.00






          TIME SUMMARY AT END OF TIME STEP  32 IN STRESS PERIOD    3
                    SECONDS     MINUTES      HOURS       DAYS        YEARS
                    -----------------------------------------------------------
   TIME STEP LENGTH  86400.      1440.0      24.000      1.0000     2.73785E-03
 STRESS PERIOD TIME 2.76480E+06  46080.      768.00      32.000     8.76112E-02
         TOTAL TIME 1.14912E+07 1.91520E+05  3192.0      133.00     0.36413    
1
 
 SOLVING FOR HEAD 

 OUTPUT CONTROL FOR STRESS PERIOD    3   TIME STEP  33
    SAVE HEAD FOR ALL LAYERS
    SAVE DRAWDOWN FOR ALL LAYERS
    SAVE BUDGET
    PRINT HEAD FOR ALL LAYERS
    PRINT BUDGET
 UBDSV1 SAVING "         STORAGE" ON UNIT  53 AT TIME STEP 33, STRESS PERIOD   3
 UBDSV2 SAVING "   CONSTANT HEAD" ON UNIT  53 AT TIME STEP 33, STRESS PERIOD   3
 UBDSV1 SAVING "FLOW RIGHT FACE " ON UNIT  53 AT TIME STEP 33, STRESS PERIOD   3
 UBDSV1 SAVING "FLOW FRONT FACE " ON UNIT  53 AT TIME STEP 33, STRESS PERIOD   3
1
              HEAD IN LAYER   1 AT END OF TIME STEP  33 IN STRESS PERIOD    3
  ---------------------------------------------------------------------------

            1           2           3           4           5           6           7           8           9          10
           11          12          13          14          15          16          17          18          19          20
 ........................................................................................................................
   1    9.990       9.505       9.015       8.519       8.019       7.513       7.001       6.486       5.967       5.447    
        4.926       4.403       3.877       3.346       2.808       2.263       1.711       1.151      0.5848      1.1534E-02
   2    9.990       9.502       9.009       8.509       8.001       7.485       6.961       6.431       5.900       5.375    
        4.859       4.348       3.836       3.318       2.790       2.253       1.705       1.148      0.5836      1.1509E-02
   3    9.990       9.496       8.995       8.483       7.956       7.410       6.846       6.266       5.687       5.135    
        4.643       4.180       3.719       3.242       2.744       2.226       1.691       1.141      0.5807      1.1453E-02
   4    9.990       9.488       8.975       8.443       7.881       7.276       6.615       5.891       5.124       4.414    
        4.072       3.795       3.479       3.102       2.666       2.185       1.670       1.131      0.5767      1.1374E-02
   5    9.990       9.483       8.962       8.414       7.821       7.152       6.356       5.343       3.935       1.754    
        2.860       3.227       3.208       2.971       2.603       2.154       1.655       1.125      0.5742      1.1326E-02
   6    9.990       9.488       8.975       8.443       7.881       7.276       6.615       5.891       5.124       4.414    
        4.072       3.795       3.479       3.102       2.666       2.185       1.670       1.131      0.5767      1.1374E-02
   7    9.990       9.496       8.995       8.483       7.956       7.411       6.846       6.267       5.687       5.136    
        4.643       4.181       3.719       3.242       2.745       2.226       1.691       1.141      0.5807      1.1454E-02
   8    9.990       9.502       9.009       8.509       8.002       7.486       6.962       6.432       5.902       5.377    
        4.860       4.350       3.837       3.319       2.791       2.253       1.705       1.148      0.5836      1.1510E-02
   9    9.990       9.505       9.016       8.521       8.022       7.517       7.007       6.493       5.975       5.455    
        4.934       4.410       3.883       3.350       2.811       2.265       1.712       1.152      0.5850      1.1538E-02
  10    9.990       9.506       9.018       8.525       8.028       7.527       7.021       6.510       5.996       5.477    
        4.955       4.428       3.896       3.360       2.817       2.269       1.714       1.153      0.5855      1.1548E-02

 HEAD WILL BE SAVED ON UNIT   51 AT END OF TIME STEP  33, STRESS PERIOD    3

 DRAWDOWN WILL BE SAVED ON UNIT   52 AT END OF TIME STEP  33, STRESS PERIOD    3
1
  VOLUMETRIC BUDGET FOR ENTIRE MODEL AT END OF TIME STEP 33 IN STRESS PERIOD   3
  ------------------------------------------------------------------------------

     CUMULATIVE VOLUMES      L**3       RATES FOR THIS TIME STEP      L**3/T
     ------------------                 ------------------------

           IN:                                      IN:
           ---                                      ---
             STORAGE =       16368.4727               STORAGE =         484.1227
       CONSTANT HEAD =           0.0000         CONSTANT HEAD =           0.0000
               WELLS =           0.0000                 WELLS =           0.0000
     HEAD DEP BOUNDS =       77509.3828       HEAD DEP BOUNDS =         588.9749

            TOTAL IN =       93877.8594              TOTAL IN =        1073.0977

          OUT:                                     OUT:
          ----                                     ----
             STORAGE =           0.1866               STORAGE =           0.0000
       CONSTANT HEAD =           0.0000         CONSTANT HEAD =           0.0000
               WELLS =       16500.0000                 WELLS =         500.0000
     HEAD DEP BOUNDS =       77379.5156       HEAD DEP BOUNDS =         573.0997

           TOTAL OUT =       93879.7031             TOTAL OUT =        1073.0996

            IN - OUT =          -1.8438              IN - OUT =      -1.9531E-03

 PERCENT DISCREPANCY =           0.00     PERCENT DISCREPANCY =           0.00






          TIME SUMMARY AT END OF TIME STEP  33 IN STRESS PERIOD    3
                    SECONDS     MINUTES      HOURS       DAYS        YEARS
                    -----------------------------------------------------------
   TIME STEP LENGTH  86400.      1440.0      24.000      1.0000     2.73785E-03
 STRESS PERIOD TIME 2.85120E+06  47520.      792.00      33.000     9.03491E-02
         TOTAL TIME 1.15776E+07 1.92960E+05  3216.0      134.00     0.36687    
1
 
 SOLVING FOR HEAD 

 OUTPUT CONTROL FOR STRESS PERIOD    3   TIME STEP  34
    SAVE HEAD FOR ALL LAYERS
    SAVE DRAWDOWN FOR ALL LAYERS
    SAVE BUDGET
    PRINT HEAD FOR ALL LAYERS
    PRINT BUDGET
 UBDSV1 SAVING "         STORAGE" ON UNIT  53 AT TIME STEP 34, STRESS PERIOD   3
 UBDSV2 SAVING "   CONSTANT HEAD" ON UNIT  53 AT TIME STEP 34, STRESS PERIOD   3
 UBDSV1 SAVING "FLOW RIGHT FACE " ON UNIT  53 AT TIME STEP 34, STRESS PERIOD   3
 UBDSV1 SAVING "FLOW FRONT FACE " ON UNIT  53 AT TIME STEP 34, STRESS PERIOD   3
1
              HEAD IN LAYER   1 AT END OF TIME STEP  34 IN STRESS PERIOD    3
  ---------------------------------------------------------------------------

            1           2           3           4           5           6           7           8           9          10
           11          12          13          14          15          16          17          18          19          20
 ........................................................................................................................
   1    9.990       9.504       9.014       8.519       8.018       7.511       6.999       6.483       5.964       5.444    
        4.923       4.401       3.875       3.344       2.807       2.262       1.710       1.151      0.5847      1.1531E-02
   2    9.990       9.502       9.008       8.507       7.998       7.481       6.956       6.425       5.894       5.369    
        4.853       4.343       3.832       3.314       2.788       2.251       1.704       1.148      0.5833      1.1503E-02
   3    9.990       9.495       8.993       8.480       7.951       7.404       6.837       6.256       5.675       5.123    
        4.631       4.170       3.710       3.235       2.739       2.223       1.689       1.140      0.5801      1.1442E-02
   4    9.990       9.487       8.972       8.438       7.873       7.265       6.601       5.875       5.106       4.394    
        4.053       3.778       3.465       3.091       2.658       2.179       1.666       1.129      0.5758      1.1356E-02
   5    9.990       9.481       8.958       8.408       7.812       7.140       6.340       5.323       3.912       1.729    
        2.837       3.206       3.191       2.957       2.593       2.148       1.651       1.122      0.5732      1.1305E-02
   6    9.990       9.487       8.972       8.438       7.873       7.265       6.601       5.875       5.106       4.394    
        4.053       3.778       3.465       3.091       2.658       2.179       1.666       1.129      0.5758      1.1356E-02
   7    9.990       9.495       8.993       8.480       7.951       7.404       6.837       6.256       5.676       5.124    
        4.632       4.170       3.710       3.235       2.739       2.223       1.689       1.140      0.5802      1.1442E-02
   8    9.990       9.502       9.008       8.508       7.999       7.482       6.958       6.427       5.896       5.371    
        4.855       4.344       3.833       3.315       2.788       2.251       1.704       1.148      0.5833      1.1505E-02
   9    9.990       9.505       9.015       8.521       8.021       7.516       7.005       6.490       5.972       5.453    
        4.931       4.408       3.881       3.348       2.810       2.264       1.711       1.152      0.5849      1.1536E-02
  10    9.990       9.506       9.018       8.525       8.028       7.526       7.020       6.509       5.995       5.476    
        4.954       4.427       3.896       3.359       2.817       2.268       1.714       1.153      0.5855      1.1547E-02

 HEAD WILL BE SAVED ON UNIT   51 AT END OF TIME STEP  34, STRESS PERIOD    3

 DRAWDOWN WILL BE SAVED ON UNIT   52 AT END OF TIME STEP  34, STRESS PERIOD    3
1
  VOLUMETRIC BUDGET FOR ENTIRE MODEL AT END OF TIME STEP 34 IN STRESS PERIOD   3
  ------------------------------------------------------------------------------

     CUMULATIVE VOLUMES      L**3       RATES FOR THIS TIME STEP      L**3/T
     ------------------                 ------------------------

           IN:                                      IN:
           ---                                      ---
             STORAGE =       16851.1816               STORAGE =         482.7093
       CONSTANT HEAD =           0.0000         CONSTANT HEAD =           0.0000
               WELLS =           0.0000                 WELLS =           0.0000
     HEAD DEP BOUNDS =       78099.2891       HEAD DEP BOUNDS =         589.9088

            TOTAL IN =       94950.4688              TOTAL IN =        1072.6182

          OUT:                                     OUT:
          ----                                     ----
             STORAGE =           0.1866               STORAGE =           0.0000
       CONSTANT HEAD =           0.0000         CONSTANT HEAD =           0.0000
               WELLS =       17000.0000                 WELLS =         500.0000
     HEAD DEP BOUNDS =       77952.1328       HEAD DEP BOUNDS =         572.6207

           TOTAL OUT =       94952.3203             TOTAL OUT =        1072.6207

            IN - OUT =          -1.8516              IN - OUT =      -2.5635E-03

 PERCENT DISCREPANCY =           0.00     PERCENT DISCREPANCY =           0.00






          TIME SUMMARY AT END OF TIME STEP  34 IN STRESS PERIOD    3
                    SECONDS     MINUTES      HOURS       DAYS        YEARS
                    -----------------------------------------------------------
   TIME STEP LENGTH  86400.      1440.0      24.000      1.0000     2.73785E-03
 STRESS PERIOD TIME 2.93760E+06  48960.      816.00      34.000     9.30869E-02
         TOTAL TIME 1.16640E+07 1.94400E+05  3240.0      135.00     0.36961    
1
 
 SOLVING FOR HEAD 

 OUTPUT CONTROL FOR STRESS PERIOD    3   TIME STEP  35
    SAVE HEAD FOR ALL LAYERS
    SAVE DRAWDOWN FOR ALL LAYERS
    SAVE BUDGET
    PRINT HEAD FOR ALL LAYERS
    PRINT BUDGET
 UBDSV1 SAVING "         STORAGE" ON UNIT  53 AT TIME STEP 35, STRESS PERIOD   3
 UBDSV2 SAVING "   CONSTANT HEAD" ON UNIT  53 AT TIME STEP 35, STRESS PERIOD   3
 UBDSV1 SAVING "FLOW RIGHT FACE " ON UNIT  53 AT TIME STEP 35, STRESS PERIOD   3
 UBDSV1 SAVING "FLOW FRONT FACE " ON UNIT  53 AT TIME STEP 35, STRESS PERIOD   3
1
              HEAD IN LAYER   1 AT END OF TIME STEP  35 IN STRESS PERIOD    3
  ---------------------------------------------------------------------------

            1           2           3           4           5           6           7           8           9          10
           11          12          13          14          15          16          17          18          19          20
 ........................................................................................................................
   1    9.990       9.504       9.013       8.517       8.016       7.509       6.997       6.480       5.961       5.440    
        4.920       4.398       3.873       3.342       2.805       2.261       1.710       1.151      0.5845      1.1527E-02
   2    9.990       9.501       9.007       8.505       7.996       7.478       6.952       6.420       5.888       5.362    
        4.847       4.337       3.827       3.311       2.785       2.249       1.703       1.147      0.5830      1.1497E-02
   3    9.990       9.494       8.991       8.476       7.946       7.397       6.829       6.246       5.664       5.111    
        4.620       4.159       3.701       3.228       2.734       2.219       1.686       1.139      0.5796      1.1430E-02
   4    9.990       9.485       8.969       8.432       7.865       7.255       6.588       5.858       5.087       4.375    
        4.034       3.761       3.451       3.080       2.650       2.174       1.663       1.127      0.5749      1.1338E-02
   5    9.990       9.479       8.954       8.402       7.803       7.127       6.324       5.304       3.890       1.705    
        2.814       3.186       3.174       2.944       2.584       2.141       1.647       1.120      0.5721      1.1283E-02
   6    9.990       9.485       8.969       8.432       7.865       7.255       6.588       5.859       5.088       4.375    
        4.035       3.761       3.451       3.080       2.650       2.174       1.663       1.127      0.5749      1.1338E-02
   7    9.990       9.494       8.991       8.476       7.946       7.397       6.829       6.246       5.664       5.112    
        4.620       4.160       3.701       3.228       2.734       2.220       1.687       1.139      0.5796      1.1431E-02
   8    9.990       9.501       9.007       8.506       7.997       7.479       6.953       6.422       5.890       5.365    
        4.849       4.339       3.829       3.312       2.786       2.249       1.703       1.147      0.5830      1.1499E-02
   9    9.990       9.505       9.015       8.520       8.020       7.514       7.003       6.488       5.970       5.450    
        4.929       4.406       3.879       3.347       2.809       2.263       1.711       1.151      0.5848      1.1533E-02
  10    9.990       9.506       9.018       8.525       8.027       7.526       7.019       6.508       5.994       5.475    
        4.952       4.426       3.895       3.358       2.816       2.268       1.714       1.153      0.5854      1.1546E-02

 HEAD WILL BE SAVED ON UNIT   51 AT END OF TIME STEP  35, STRESS PERIOD    3

 DRAWDOWN WILL BE SAVED ON UNIT   52 AT END OF TIME STEP  35, STRESS PERIOD    3
1
  VOLUMETRIC BUDGET FOR ENTIRE MODEL AT END OF TIME STEP 35 IN STRESS PERIOD   3
  ------------------------------------------------------------------------------

     CUMULATIVE VOLUMES      L**3       RATES FOR THIS TIME STEP      L**3/T
     ------------------                 ------------------------

           IN:                                      IN:
           ---                                      ---
             STORAGE =       17332.4219               STORAGE =         481.2410
       CONSTANT HEAD =           0.0000         CONSTANT HEAD =           0.0000
               WELLS =           0.0000                 WELLS =           0.0000
     HEAD DEP BOUNDS =       78690.1641       HEAD DEP BOUNDS =         590.8757

            TOTAL IN =       96022.5859              TOTAL IN =        1072.1167

          OUT:                                     OUT:
          ----                                     ----
             STORAGE =           0.1866               STORAGE =           0.0000
       CONSTANT HEAD =           0.0000         CONSTANT HEAD =           0.0000
               WELLS =       17500.0000                 WELLS =         500.0000
     HEAD DEP BOUNDS =       78524.2500       HEAD DEP BOUNDS =         572.1166

           TOTAL OUT =       96024.4375             TOTAL OUT =        1072.1166

            IN - OUT =          -1.8516              IN - OUT =       1.2207E-04

 PERCENT DISCREPANCY =           0.00     PERCENT DISCREPANCY =           0.00






          TIME SUMMARY AT END OF TIME STEP  35 IN STRESS PERIOD    3
                    SECONDS     MINUTES      HOURS       DAYS        YEARS
                    -----------------------------------------------------------
   TIME STEP LENGTH  86400.      1440.0      24.000      1.0000     2.73785E-03
 STRESS PERIOD TIME 3.02400E+06  50400.      840.00      35.000     9.58248E-02
         TOTAL TIME 1.17504E+07 1.95840E+05  3264.0      136.00     0.37235    
1
 
 SOLVING FOR HEAD 

 OUTPUT CONTROL FOR STRESS PERIOD    3   TIME STEP  36
    SAVE HEAD FOR ALL LAYERS
    SAVE DRAWDOWN FOR ALL LAYERS
    SAVE BUDGET
    PRINT HEAD FOR ALL LAYERS
    PRINT BUDGET
 UBDSV1 SAVING "         STORAGE" ON UNIT  53 AT TIME STEP 36, STRESS PERIOD   3
 UBDSV2 SAVING "   CONSTANT HEAD" ON UNIT  53 AT TIME STEP 36, STRESS PERIOD   3
 UBDSV1 SAVING "FLOW RIGHT FACE " ON UNIT  53 AT TIME STEP 36, STRESS PERIOD   3
 UBDSV1 SAVING "FLOW FRONT FACE " ON UNIT  53 AT TIME STEP 36, STRESS PERIOD   3
1
              HEAD IN LAYER   1 AT END OF TIME STEP  36 IN STRESS PERIOD    3
  ---------------------------------------------------------------------------

            1           2           3           4           5           6           7           8           9          10
           11          12          13          14          15          16          17          18          19          20
 ........................................................................................................................
   1    9.990       9.504       9.013       8.516       8.015       7.507       6.994       6.477       5.957       5.437    
        4.916       4.395       3.870       3.340       2.804       2.260       1.709       1.150      0.5843      1.1524E-02
   2    9.990       9.501       9.005       8.503       7.993       7.474       6.947       6.415       5.882       5.356    
        4.841       4.332       3.822       3.307       2.782       2.247       1.701       1.146      0.5826      1.1491E-02
   3    9.990       9.493       8.989       8.473       7.941       7.390       6.820       6.235       5.652       5.099    
        4.608       4.149       3.692       3.221       2.729       2.216       1.684       1.137      0.5789      1.1418E-02
   4    9.990       9.484       8.966       8.427       7.858       7.244       6.575       5.843       5.070       4.356    
        4.016       3.745       3.437       3.069       2.642       2.168       1.659       1.125      0.5739      1.1319E-02
   5    9.990       9.478       8.951       8.396       7.794       7.115       6.309       5.285       3.869       1.682    
        2.792       3.167       3.158       2.932       2.574       2.135       1.643       1.118      0.5710      1.1261E-02
   6    9.990       9.484       8.966       8.427       7.858       7.245       6.575       5.843       5.070       4.357    
        4.017       3.745       3.437       3.069       2.642       2.168       1.659       1.125      0.5739      1.1319E-02
   7    9.990       9.493       8.989       8.473       7.941       7.391       6.820       6.236       5.653       5.100    
        4.609       4.149       3.692       3.221       2.729       2.216       1.684       1.137      0.5789      1.1418E-02
   8    9.990       9.501       9.006       8.504       7.994       7.476       6.949       6.417       5.885       5.359    
        4.843       4.334       3.824       3.308       2.783       2.248       1.702       1.146      0.5827      1.1493E-02
   9    9.990       9.504       9.014       8.519       8.018       7.512       7.001       6.486       5.967       5.447    
        4.926       4.403       3.877       3.345       2.807       2.262       1.710       1.151      0.5847      1.1531E-02
  10    9.990       9.506       9.017       8.524       8.027       7.525       7.018       6.507       5.992       5.474    
        4.951       4.425       3.894       3.358       2.816       2.268       1.713       1.153      0.5854      1.1545E-02

 HEAD WILL BE SAVED ON UNIT   51 AT END OF TIME STEP  36, STRESS PERIOD    3

 DRAWDOWN WILL BE SAVED ON UNIT   52 AT END OF TIME STEP  36, STRESS PERIOD    3
1
  VOLUMETRIC BUDGET FOR ENTIRE MODEL AT END OF TIME STEP 36 IN STRESS PERIOD   3
  ------------------------------------------------------------------------------

     CUMULATIVE VOLUMES      L**3       RATES FOR THIS TIME STEP      L**3/T
     ------------------                 ------------------------

           IN:                                      IN:
           ---                                      ---
             STORAGE =       17812.1426               STORAGE =         479.7209
       CONSTANT HEAD =           0.0000         CONSTANT HEAD =           0.0000
               WELLS =           0.0000                 WELLS =           0.0000
     HEAD DEP BOUNDS =       79282.0234       HEAD DEP BOUNDS =         591.8598

            TOTAL IN =       97094.1641              TOTAL IN =        1071.5807

          OUT:                                     OUT:
          ----                                     ----
             STORAGE =           0.1866               STORAGE =           0.0000
       CONSTANT HEAD =           0.0000         CONSTANT HEAD =           0.0000
               WELLS =       18000.0000                 WELLS =         500.0000
     HEAD DEP BOUNDS =       79095.8359       HEAD DEP BOUNDS =         571.5895

           TOTAL OUT =       97096.0234             TOTAL OUT =        1071.5895

            IN - OUT =          -1.8594              IN - OUT =      -8.7891E-03

 PERCENT DISCREPANCY =           0.00     PERCENT DISCREPANCY =           0.00






          TIME SUMMARY AT END OF TIME STEP  36 IN STRESS PERIOD    3
                    SECONDS     MINUTES      HOURS       DAYS        YEARS
                    -----------------------------------------------------------
   TIME STEP LENGTH  86400.      1440.0      24.000      1.0000     2.73785E-03
 STRESS PERIOD TIME 3.11040E+06  51840.      864.00      36.000     9.85626E-02
         TOTAL TIME 1.18368E+07 1.97280E+05  3288.0      137.00     0.37509    
1
 
 SOLVING FOR HEAD 

 OUTPUT CONTROL FOR STRESS PERIOD    3   TIME STEP  37
    SAVE HEAD FOR ALL LAYERS
    SAVE DRAWDOWN FOR ALL LAYERS
    SAVE BUDGET
    PRINT HEAD FOR ALL LAYERS
    PRINT BUDGET
 UBDSV1 SAVING "         STORAGE" ON UNIT  53 AT TIME STEP 37, STRESS PERIOD   3
 UBDSV2 SAVING "   CONSTANT HEAD" ON UNIT  53 AT TIME STEP 37, STRESS PERIOD   3
 UBDSV1 SAVING "FLOW RIGHT FACE " ON UNIT  53 AT TIME STEP 37, STRESS PERIOD   3
 UBDSV1 SAVING "FLOW FRONT FACE " ON UNIT  53 AT TIME STEP 37, STRESS PERIOD   3
1
              HEAD IN LAYER   1 AT END OF TIME STEP  37 IN STRESS PERIOD    3
  ---------------------------------------------------------------------------

            1           2           3           4           5           6           7           8           9          10
           11          12          13          14          15          16          17          18          19          20
 ........................................................................................................................
   1    9.990       9.503       9.012       8.515       8.013       7.505       6.991       6.474       5.954       5.433    
        4.913       4.392       3.867       3.338       2.802       2.259       1.708       1.150      0.5841      1.1520E-02
   2    9.990       9.500       9.004       8.501       7.990       7.470       6.942       6.409       5.876       5.350    
        4.834       4.326       3.818       3.303       2.779       2.245       1.700       1.145      0.5823      1.1483E-02
   3    9.990       9.492       8.987       8.469       7.936       7.383       6.811       6.225       5.641       5.088    
        4.597       4.138       3.683       3.214       2.724       2.212       1.682       1.136      0.5783      1.1405E-02
   4    9.990       9.482       8.962       8.422       7.850       7.234       6.562       5.827       5.052       4.338    
        3.999       3.728       3.424       3.058       2.634       2.162       1.655       1.123      0.5729      1.1299E-02
   5    9.990       9.476       8.947       8.390       7.785       7.103       6.294       5.267       3.848       1.659    
        2.771       3.148       3.142       2.919       2.565       2.128       1.639       1.115      0.5698      1.1239E-02
   6    9.990       9.482       8.962       8.422       7.850       7.234       6.562       5.827       5.052       4.338    
        3.999       3.729       3.424       3.058       2.634       2.162       1.655       1.123      0.5729      1.1300E-02
   7    9.990       9.492       8.987       8.469       7.936       7.384       6.812       6.226       5.642       5.088    
        4.597       4.139       3.684       3.214       2.724       2.212       1.682       1.136      0.5783      1.1405E-02
   8    9.990       9.500       9.005       8.502       7.991       7.472       6.944       6.412       5.879       5.353    
        4.837       4.329       3.820       3.305       2.780       2.246       1.700       1.146      0.5824      1.1486E-02
   9    9.990       9.504       9.014       8.518       8.017       7.511       6.999       6.484       5.965       5.445    
        4.924       4.401       3.875       3.344       2.806       2.262       1.710       1.151      0.5845      1.1528E-02
  10    9.990       9.506       9.017       8.524       8.026       7.524       7.017       6.506       5.991       5.472    
        4.950       4.424       3.893       3.357       2.815       2.267       1.713       1.152      0.5853      1.1543E-02

 HEAD WILL BE SAVED ON UNIT   51 AT END OF TIME STEP  37, STRESS PERIOD    3

 DRAWDOWN WILL BE SAVED ON UNIT   52 AT END OF TIME STEP  37, STRESS PERIOD    3
1
  VOLUMETRIC BUDGET FOR ENTIRE MODEL AT END OF TIME STEP 37 IN STRESS PERIOD   3
  ------------------------------------------------------------------------------

     CUMULATIVE VOLUMES      L**3       RATES FOR THIS TIME STEP      L**3/T
     ------------------                 ------------------------

           IN:                                      IN:
           ---                                      ---
             STORAGE =       18290.3027               STORAGE =         478.1604
       CONSTANT HEAD =           0.0000         CONSTANT HEAD =           0.0000
               WELLS =           0.0000                 WELLS =           0.0000
     HEAD DEP BOUNDS =       79874.8984       HEAD DEP BOUNDS =         592.8773

            TOTAL IN =       98165.2031              TOTAL IN =        1071.0377

          OUT:                                     OUT:
          ----                                     ----
             STORAGE =           0.1866               STORAGE =           0.0000
       CONSTANT HEAD =           0.0000         CONSTANT HEAD =           0.0000
               WELLS =       18500.0000                 WELLS =         500.0000
     HEAD DEP BOUNDS =       79666.8750       HEAD DEP BOUNDS =         571.0377

           TOTAL OUT =       98167.0625             TOTAL OUT =        1071.0377

            IN - OUT =          -1.8594              IN - OUT =           0.0000

 PERCENT DISCREPANCY =           0.00     PERCENT DISCREPANCY =           0.00






          TIME SUMMARY AT END OF TIME STEP  37 IN STRESS PERIOD    3
                    SECONDS     MINUTES      HOURS       DAYS        YEARS
                    -----------------------------------------------------------
   TIME STEP LENGTH  86400.      1440.0      24.000      1.0000     2.73785E-03
 STRESS PERIOD TIME 3.19680E+06  53280.      888.00      37.000     0.10130    
         TOTAL TIME 1.19232E+07 1.98720E+05  3312.0      138.00     0.37782    
1
 
 SOLVING FOR HEAD 

 OUTPUT CONTROL FOR STRESS PERIOD    3   TIME STEP  38
    SAVE HEAD FOR ALL LAYERS
    SAVE DRAWDOWN FOR ALL LAYERS
    SAVE BUDGET
    PRINT HEAD FOR ALL LAYERS
    PRINT BUDGET
 UBDSV1 SAVING "         STORAGE" ON UNIT  53 AT TIME STEP 38, STRESS PERIOD   3
 UBDSV2 SAVING "   CONSTANT HEAD" ON UNIT  53 AT TIME STEP 38, STRESS PERIOD   3
 UBDSV1 SAVING "FLOW RIGHT FACE " ON UNIT  53 AT TIME STEP 38, STRESS PERIOD   3
 UBDSV1 SAVING "FLOW FRONT FACE " ON UNIT  53 AT TIME STEP 38, STRESS PERIOD   3
1
              HEAD IN LAYER   1 AT END OF TIME STEP  38 IN STRESS PERIOD    3
  ---------------------------------------------------------------------------

            1           2           3           4           5           6           7           8           9          10
           11          12          13          14          15          16          17          18          19          20
 ........................................................................................................................
   1    9.990       9.503       9.011       8.514       8.011       7.503       6.989       6.471       5.950       5.430    
        4.909       4.388       3.865       3.336       2.801       2.258       1.707       1.149      0.5839      1.1515E-02
   2    9.990       9.499       9.003       8.499       7.987       7.466       6.937       6.403       5.870       5.343    
        4.828       4.320       3.813       3.299       2.776       2.243       1.699       1.145      0.5819      1.1476E-02
   3    9.990       9.491       8.985       8.466       7.931       7.377       6.803       6.215       5.630       5.076    
        4.585       4.128       3.674       3.207       2.718       2.208       1.679       1.134      0.5776      1.1391E-02
   4    9.990       9.481       8.959       8.417       7.843       7.224       6.549       5.812       5.035       4.320    
        3.981       3.713       3.410       3.047       2.626       2.157       1.652       1.121      0.5719      1.1279E-02
   5    9.990       9.474       8.943       8.384       7.777       7.092       6.279       5.249       3.828       1.638    
        2.750       3.129       3.126       2.906       2.555       2.121       1.634       1.113      0.5686      1.1215E-02
   6    9.990       9.481       8.959       8.417       7.843       7.224       6.549       5.812       5.035       4.321    
        3.982       3.713       3.410       3.047       2.626       2.157       1.652       1.121      0.5719      1.1279E-02
   7    9.990       9.491       8.985       8.466       7.931       7.377       6.803       6.216       5.631       5.077    
        4.586       4.129       3.675       3.207       2.719       2.208       1.679       1.135      0.5776      1.1392E-02
   8    9.990       9.500       9.003       8.500       7.989       7.468       6.940       6.406       5.873       5.347    
        4.831       4.323       3.815       3.301       2.778       2.244       1.699       1.145      0.5820      1.1479E-02
   9    9.990       9.504       9.013       8.517       8.016       7.509       6.997       6.481       5.962       5.442    
        4.921       4.399       3.873       3.342       2.805       2.261       1.709       1.150      0.5843      1.1524E-02
  10    9.990       9.506       9.017       8.524       8.026       7.523       7.016       6.505       5.990       5.471    
        4.949       4.423       3.892       3.356       2.815       2.267       1.713       1.152      0.5852      1.1542E-02

 HEAD WILL BE SAVED ON UNIT   51 AT END OF TIME STEP  38, STRESS PERIOD    3

 DRAWDOWN WILL BE SAVED ON UNIT   52 AT END OF TIME STEP  38, STRESS PERIOD    3
1
  VOLUMETRIC BUDGET FOR ENTIRE MODEL AT END OF TIME STEP 38 IN STRESS PERIOD   3
  ------------------------------------------------------------------------------

     CUMULATIVE VOLUMES      L**3       RATES FOR THIS TIME STEP      L**3/T
     ------------------                 ------------------------

           IN:                                      IN:
           ---                                      ---
             STORAGE =       18766.8477               STORAGE =         476.5454
       CONSTANT HEAD =           0.0000         CONSTANT HEAD =           0.0000
               WELLS =           0.0000                 WELLS =           0.0000
     HEAD DEP BOUNDS =       80468.8125       HEAD DEP BOUNDS =         593.9128

            TOTAL IN =       99235.6562              TOTAL IN =        1070.4583

          OUT:                                     OUT:
          ----                                     ----
             STORAGE =           0.1866               STORAGE =           0.0000
       CONSTANT HEAD =           0.0000         CONSTANT HEAD =           0.0000
               WELLS =       19000.0000                 WELLS =         500.0000
     HEAD DEP BOUNDS =       80237.3359       HEAD DEP BOUNDS =         570.4629

           TOTAL OUT =       99237.5234             TOTAL OUT =        1070.4629

            IN - OUT =          -1.8672              IN - OUT =      -4.6387E-03

 PERCENT DISCREPANCY =           0.00     PERCENT DISCREPANCY =           0.00






          TIME SUMMARY AT END OF TIME STEP  38 IN STRESS PERIOD    3
                    SECONDS     MINUTES      HOURS       DAYS        YEARS
                    -----------------------------------------------------------
   TIME STEP LENGTH  86400.      1440.0      24.000      1.0000     2.73785E-03
 STRESS PERIOD TIME 3.28320E+06  54720.      912.00      38.000     0.10404    
         TOTAL TIME 1.20096E+07 2.00160E+05  3336.0      139.00     0.38056    
1
 
 SOLVING FOR HEAD 

 OUTPUT CONTROL FOR STRESS PERIOD    3   TIME STEP  39
    SAVE HEAD FOR ALL LAYERS
    SAVE DRAWDOWN FOR ALL LAYERS
    SAVE BUDGET
    PRINT HEAD FOR ALL LAYERS
    PRINT BUDGET
 UBDSV1 SAVING "         STORAGE" ON UNIT  53 AT TIME STEP 39, STRESS PERIOD   3
 UBDSV2 SAVING "   CONSTANT HEAD" ON UNIT  53 AT TIME STEP 39, STRESS PERIOD   3
 UBDSV1 SAVING "FLOW RIGHT FACE " ON UNIT  53 AT TIME STEP 39, STRESS PERIOD   3
 UBDSV1 SAVING "FLOW FRONT FACE " ON UNIT  53 AT TIME STEP 39, STRESS PERIOD   3
1
              HEAD IN LAYER   1 AT END OF TIME STEP  39 IN STRESS PERIOD    3
  ---------------------------------------------------------------------------

            1           2           3           4           5           6           7           8           9          10
           11          12          13          14          15          16          17          18          19          20
 ........................................................................................................................
   1    9.990       9.503       9.010       8.513       8.009       7.500       6.986       6.467       5.947       5.426    
        4.906       4.385       3.862       3.334       2.799       2.257       1.706       1.149      0.5836      1.1511E-02
   2    9.990       9.499       9.002       8.497       7.984       7.463       6.933       6.398       5.864       5.337    
        4.822       4.315       3.808       3.295       2.773       2.241       1.697       1.144      0.5815      1.1468E-02
   3    9.990       9.490       8.982       8.462       7.926       7.370       6.794       6.205       5.619       5.065    
        4.574       4.118       3.666       3.200       2.713       2.204       1.677       1.133      0.5769      1.1377E-02
   4    9.990       9.479       8.956       8.412       7.835       7.214       6.536       5.797       5.019       4.303    
        3.964       3.697       3.397       3.036       2.618       2.151       1.648       1.118      0.5708      1.1258E-02
   5    9.990       9.472       8.940       8.378       7.768       7.080       6.264       5.232       3.808       1.616    
        2.730       3.111       3.111       2.894       2.546       2.115       1.630       1.110      0.5674      1.1191E-02
   6    9.990       9.479       8.956       8.412       7.835       7.214       6.536       5.797       5.019       4.303    
        3.965       3.697       3.397       3.037       2.618       2.151       1.648       1.118      0.5708      1.1258E-02
   7    9.990       9.490       8.982       8.462       7.926       7.370       6.795       6.206       5.620       5.066    
        4.575       4.119       3.666       3.200       2.713       2.205       1.677       1.133      0.5769      1.1378E-02
   8    9.990       9.499       9.002       8.498       7.986       7.465       6.935       6.401       5.867       5.341    
        4.825       4.318       3.810       3.297       2.775       2.242       1.698       1.144      0.5816      1.1471E-02
   9    9.990       9.504       9.013       8.516       8.015       7.507       6.995       6.479       5.960       5.439    
        4.918       4.396       3.871       3.340       2.804       2.260       1.708       1.150      0.5842      1.1521E-02
  10    9.990       9.505       9.016       8.523       8.025       7.522       7.015       6.504       5.989       5.470    
        4.947       4.421       3.891       3.355       2.814       2.266       1.712       1.152      0.5851      1.1540E-02

 HEAD WILL BE SAVED ON UNIT   51 AT END OF TIME STEP  39, STRESS PERIOD    3

 DRAWDOWN WILL BE SAVED ON UNIT   52 AT END OF TIME STEP  39, STRESS PERIOD    3
1
  VOLUMETRIC BUDGET FOR ENTIRE MODEL AT END OF TIME STEP 39 IN STRESS PERIOD   3
  ------------------------------------------------------------------------------

     CUMULATIVE VOLUMES      L**3       RATES FOR THIS TIME STEP      L**3/T
     ------------------                 ------------------------

           IN:                                      IN:
           ---                                      ---
             STORAGE =       19241.7383               STORAGE =         474.8906
       CONSTANT HEAD =           0.0000         CONSTANT HEAD =           0.0000
               WELLS =           0.0000                 WELLS =           0.0000
     HEAD DEP BOUNDS =       81063.7891       HEAD DEP BOUNDS =         594.9752

            TOTAL IN =      100305.5312              TOTAL IN =        1069.8657

          OUT:                                     OUT:
          ----                                     ----
             STORAGE =           0.1866               STORAGE =           0.0000
       CONSTANT HEAD =           0.0000         CONSTANT HEAD =           0.0000
               WELLS =       19500.0000                 WELLS =         500.0000
     HEAD DEP BOUNDS =       80807.2031       HEAD DEP BOUNDS =         569.8662

           TOTAL OUT =      100307.3906             TOTAL OUT =        1069.8662

            IN - OUT =          -1.8594              IN - OUT =      -4.8828E-04

 PERCENT DISCREPANCY =           0.00     PERCENT DISCREPANCY =           0.00






          TIME SUMMARY AT END OF TIME STEP  39 IN STRESS PERIOD    3
                    SECONDS     MINUTES      HOURS       DAYS        YEARS
                    -----------------------------------------------------------
   TIME STEP LENGTH  86400.      1440.0      24.000      1.0000     2.73785E-03
 STRESS PERIOD TIME 3.36960E+06  56160.      936.00      39.000     0.10678    
         TOTAL TIME 1.20960E+07 2.01600E+05  3360.0      140.00     0.38330    
1
 
 SOLVING FOR HEAD 

 OUTPUT CONTROL FOR STRESS PERIOD    3   TIME STEP  40
    SAVE HEAD FOR ALL LAYERS
    SAVE DRAWDOWN FOR ALL LAYERS
    SAVE BUDGET
    PRINT HEAD FOR ALL LAYERS
    PRINT BUDGET
 UBDSV1 SAVING "         STORAGE" ON UNIT  53 AT TIME STEP 40, STRESS PERIOD   3
 UBDSV2 SAVING "   CONSTANT HEAD" ON UNIT  53 AT TIME STEP 40, STRESS PERIOD   3
 UBDSV1 SAVING "FLOW RIGHT FACE " ON UNIT  53 AT TIME STEP 40, STRESS PERIOD   3
 UBDSV1 SAVING "FLOW FRONT FACE " ON UNIT  53 AT TIME STEP 40, STRESS PERIOD   3
1
              HEAD IN LAYER   1 AT END OF TIME STEP  40 IN STRESS PERIOD    3
  ---------------------------------------------------------------------------

            1           2           3           4           5           6           7           8           9          10
           11          12          13          14          15          16          17          18          19          20
 ........................................................................................................................
   1    9.990       9.502       9.010       8.511       8.008       7.498       6.983       6.464       5.943       5.422    
        4.902       4.382       3.859       3.331       2.797       2.255       1.706       1.148      0.5834      1.1506E-02
   2    9.990       9.498       9.000       8.495       7.981       7.459       6.928       6.392       5.857       5.330    
        4.816       4.309       3.803       3.291       2.770       2.238       1.696       1.143      0.5810      1.1459E-02
   3    9.990       9.489       8.980       8.458       7.920       7.363       6.786       6.195       5.608       5.053    
        4.563       4.108       3.657       3.193       2.707       2.200       1.674       1.131      0.5761      1.1363E-02
   4    9.990       9.477       8.953       8.406       7.828       7.204       6.524       5.782       5.002       4.286    
        3.948       3.682       3.384       3.026       2.610       2.145       1.644       1.116      0.5697      1.1237E-02
   5    9.990       9.471       8.936       8.372       7.760       7.069       6.250       5.215       3.789       1.596    
        2.711       3.093       3.096       2.882       2.537       2.108       1.625       1.107      0.5662      1.1167E-02
   6    9.990       9.477       8.953       8.406       7.828       7.204       6.524       5.782       5.003       4.286    
        3.948       3.682       3.384       3.026       2.610       2.145       1.644       1.116      0.5697      1.1237E-02
   7    9.990       9.489       8.980       8.459       7.921       7.364       6.787       6.196       5.609       5.054    
        4.564       4.108       3.657       3.193       2.708       2.201       1.674       1.131      0.5762      1.1364E-02
   8    9.990       9.498       9.001       8.496       7.983       7.461       6.931       6.396       5.861       5.334    
        4.820       4.312       3.806       3.293       2.772       2.240       1.696       1.143      0.5812      1.1463E-02
   9    9.990       9.503       9.012       8.515       8.013       7.506       6.993       6.476       5.957       5.436    
        4.916       4.394       3.869       3.339       2.802       2.259       1.708       1.149      0.5840      1.1517E-02
  10    9.990       9.505       9.016       8.523       8.024       7.521       7.014       6.502       5.987       5.468    
        4.946       4.420       3.890       3.354       2.813       2.266       1.712       1.152      0.5850      1.1538E-02

 HEAD WILL BE SAVED ON UNIT   51 AT END OF TIME STEP  40, STRESS PERIOD    3

 DRAWDOWN WILL BE SAVED ON UNIT   52 AT END OF TIME STEP  40, STRESS PERIOD    3
1
  VOLUMETRIC BUDGET FOR ENTIRE MODEL AT END OF TIME STEP 40 IN STRESS PERIOD   3
  ------------------------------------------------------------------------------

     CUMULATIVE VOLUMES      L**3       RATES FOR THIS TIME STEP      L**3/T
     ------------------                 ------------------------

           IN:                                      IN:
           ---                                      ---
             STORAGE =       19714.9316               STORAGE =         473.1929
       CONSTANT HEAD =           0.0000         CONSTANT HEAD =           0.0000
               WELLS =           0.0000                 WELLS =           0.0000
     HEAD DEP BOUNDS =       81659.8516       HEAD DEP BOUNDS =         596.0601

            TOTAL IN =      101374.7812              TOTAL IN =        1069.2531

          OUT:                                     OUT:
          ----                                     ----
             STORAGE =           0.1866               STORAGE =           0.0000
       CONSTANT HEAD =           0.0000         CONSTANT HEAD =           0.0000
               WELLS =       20000.0000                 WELLS =         500.0000
     HEAD DEP BOUNDS =       81376.4531       HEAD DEP BOUNDS =         569.2475

           TOTAL OUT =      101376.6406             TOTAL OUT =        1069.2476

            IN - OUT =          -1.8594              IN - OUT =       5.4932E-03

 PERCENT DISCREPANCY =           0.00     PERCENT DISCREPANCY =           0.00






          TIME SUMMARY AT END OF TIME STEP  40 IN STRESS PERIOD    3
                    SECONDS     MINUTES      HOURS       DAYS        YEARS
                    -----------------------------------------------------------
   TIME STEP LENGTH  86400.      1440.0      24.000      1.0000     2.73785E-03
 STRESS PERIOD TIME 3.45600E+06  57600.      960.00      40.000     0.10951    
         TOTAL TIME 1.21824E+07 2.03040E+05  3384.0      141.00     0.38604    
1
 
 SOLVING FOR HEAD 

 OUTPUT CONTROL FOR STRESS PERIOD    3   TIME STEP  41
    SAVE HEAD FOR ALL LAYERS
    SAVE DRAWDOWN FOR ALL LAYERS
    SAVE BUDGET
    PRINT HEAD FOR ALL LAYERS
    PRINT BUDGET
 UBDSV1 SAVING "         STORAGE" ON UNIT  53 AT TIME STEP 41, STRESS PERIOD   3
 UBDSV2 SAVING "   CONSTANT HEAD" ON UNIT  53 AT TIME STEP 41, STRESS PERIOD   3
 UBDSV1 SAVING "FLOW RIGHT FACE " ON UNIT  53 AT TIME STEP 41, STRESS PERIOD   3
 UBDSV1 SAVING "FLOW FRONT FACE " ON UNIT  53 AT TIME STEP 41, STRESS PERIOD   3
1
              HEAD IN LAYER   1 AT END OF TIME STEP  41 IN STRESS PERIOD    3
  ---------------------------------------------------------------------------

            1           2           3           4           5           6           7           8           9          10
           11          12          13          14          15          16          17          18          19          20
 ........................................................................................................................
   1    9.990       9.502       9.009       8.510       8.006       7.495       6.980       6.460       5.939       5.418    
        4.898       4.378       3.856       3.329       2.795       2.254       1.705       1.148      0.5831      1.1500E-02
   2    9.990       9.497       8.999       8.493       7.978       7.455       6.923       6.386       5.851       5.324    
        4.809       4.303       3.798       3.287       2.767       2.236       1.694       1.142      0.5806      1.1451E-02
   3    9.990       9.488       8.978       8.455       7.915       7.356       6.777       6.185       5.597       5.042    
        4.552       4.097       3.648       3.185       2.702       2.197       1.671       1.130      0.5754      1.1347E-02
   4    9.990       9.476       8.949       8.401       7.820       7.194       6.512       5.768       4.986       4.269    
        3.932       3.667       3.371       3.015       2.602       2.139       1.640       1.114      0.5686      1.1215E-02
   5    9.990       9.469       8.932       8.366       7.751       7.057       6.236       5.198       3.770       1.575    
        2.691       3.076       3.081       2.870       2.528       2.102       1.621       1.105      0.5649      1.1142E-02
   6    9.990       9.476       8.949       8.401       7.820       7.194       6.512       5.768       4.987       4.270    
        3.932       3.667       3.371       3.016       2.602       2.139       1.640       1.114      0.5686      1.1215E-02
   7    9.990       9.488       8.978       8.455       7.916       7.357       6.778       6.186       5.598       5.043    
        4.553       4.098       3.649       3.186       2.702       2.197       1.672       1.130      0.5754      1.1349E-02
   8    9.990       9.498       9.000       8.494       7.980       7.457       6.926       6.390       5.855       5.328    
        4.814       4.307       3.801       3.289       2.769       2.237       1.695       1.142      0.5808      1.1455E-02
   9    9.990       9.503       9.011       8.514       8.012       7.504       6.991       6.473       5.954       5.433    
        4.913       4.391       3.866       3.337       2.801       2.258       1.707       1.149      0.5838      1.1513E-02
  10    9.990       9.505       9.016       8.522       8.024       7.520       7.013       6.501       5.986       5.467    
        4.945       4.419       3.889       3.353       2.812       2.265       1.712       1.152      0.5849      1.1536E-02

 HEAD WILL BE SAVED ON UNIT   51 AT END OF TIME STEP  41, STRESS PERIOD    3

 DRAWDOWN WILL BE SAVED ON UNIT   52 AT END OF TIME STEP  41, STRESS PERIOD    3
1
  VOLUMETRIC BUDGET FOR ENTIRE MODEL AT END OF TIME STEP 41 IN STRESS PERIOD   3
  ------------------------------------------------------------------------------

     CUMULATIVE VOLUMES      L**3       RATES FOR THIS TIME STEP      L**3/T
     ------------------                 ------------------------

           IN:                                      IN:
           ---                                      ---
             STORAGE =       20186.3867               STORAGE =         471.4551
       CONSTANT HEAD =           0.0000         CONSTANT HEAD =           0.0000
               WELLS =           0.0000                 WELLS =           0.0000
     HEAD DEP BOUNDS =       82257.0078       HEAD DEP BOUNDS =         597.1549

            TOTAL IN =      102443.3906              TOTAL IN =        1068.6101

          OUT:                                     OUT:
          ----                                     ----
             STORAGE =           0.1866               STORAGE =           0.0000
       CONSTANT HEAD =           0.0000         CONSTANT HEAD =           0.0000
               WELLS =       20500.0000                 WELLS =         500.0000
     HEAD DEP BOUNDS =       81945.0625       HEAD DEP BOUNDS =         568.6091

           TOTAL OUT =      102445.2500             TOTAL OUT =        1068.6091

            IN - OUT =          -1.8594              IN - OUT =       9.7656E-04

 PERCENT DISCREPANCY =           0.00     PERCENT DISCREPANCY =           0.00






          TIME SUMMARY AT END OF TIME STEP  41 IN STRESS PERIOD    3
                    SECONDS     MINUTES      HOURS       DAYS        YEARS
                    -----------------------------------------------------------
   TIME STEP LENGTH  86400.      1440.0      24.000      1.0000     2.73785E-03
 STRESS PERIOD TIME 3.54240E+06  59040.      984.00      41.000     0.11225    
         TOTAL TIME 1.22688E+07 2.04480E+05  3408.0      142.00     0.38877    
1
 
 SOLVING FOR HEAD 

 OUTPUT CONTROL FOR STRESS PERIOD    3   TIME STEP  42
    SAVE HEAD FOR ALL LAYERS
    SAVE DRAWDOWN FOR ALL LAYERS
    SAVE BUDGET
    PRINT HEAD FOR ALL LAYERS
    PRINT BUDGET
 UBDSV1 SAVING "         STORAGE" ON UNIT  53 AT TIME STEP 42, STRESS PERIOD   3
 UBDSV2 SAVING "   CONSTANT HEAD" ON UNIT  53 AT TIME STEP 42, STRESS PERIOD   3
 UBDSV1 SAVING "FLOW RIGHT FACE " ON UNIT  53 AT TIME STEP 42, STRESS PERIOD   3
 UBDSV1 SAVING "FLOW FRONT FACE " ON UNIT  53 AT TIME STEP 42, STRESS PERIOD   3
1
              HEAD IN LAYER   1 AT END OF TIME STEP  42 IN STRESS PERIOD    3
  ---------------------------------------------------------------------------

            1           2           3           4           5           6           7           8           9          10
           11          12          13          14          15          16          17          18          19          20
 ........................................................................................................................
   1    9.990       9.501       9.008       8.509       8.004       7.493       6.977       6.457       5.935       5.414    
        4.894       4.375       3.853       3.326       2.793       2.252       1.704       1.147      0.5828      1.1494E-02
   2    9.990       9.497       8.997       8.491       7.975       7.450       6.918       6.381       5.845       5.317    
        4.803       4.297       3.793       3.283       2.764       2.234       1.693       1.141      0.5801      1.1441E-02
   3    9.990       9.487       8.975       8.451       7.910       7.349       6.769       6.176       5.586       5.031    
        4.541       4.087       3.639       3.178       2.696       2.192       1.669       1.128      0.5746      1.1332E-02
   4    9.990       9.474       8.946       8.396       7.813       7.185       6.500       5.754       4.971       4.253    
        3.916       3.653       3.358       3.005       2.594       2.134       1.636       1.111      0.5675      1.1192E-02
   5    9.990       9.467       8.928       8.360       7.743       7.046       6.222       5.182       3.752       1.556    
        2.673       3.059       3.066       2.858       2.518       2.095       1.617       1.102      0.5636      1.1116E-02
   6    9.990       9.474       8.946       8.396       7.813       7.185       6.500       5.754       4.971       4.253    
        3.916       3.653       3.359       3.005       2.594       2.134       1.636       1.111      0.5675      1.1193E-02
   7    9.990       9.487       8.976       8.452       7.911       7.350       6.770       6.177       5.587       5.032    
        4.542       4.088       3.640       3.179       2.697       2.193       1.669       1.128      0.5746      1.1333E-02
   8    9.990       9.497       8.998       8.492       7.977       7.453       6.921       6.385       5.849       5.322    
        4.808       4.301       3.796       3.286       2.766       2.235       1.693       1.141      0.5804      1.1446E-02
   9    9.990       9.503       9.011       8.513       8.010       7.502       6.988       6.471       5.951       5.430    
        4.910       4.388       3.864       3.335       2.799       2.257       1.706       1.149      0.5835      1.1509E-02
  10    9.990       9.505       9.015       8.521       8.023       7.519       7.012       6.500       5.984       5.465    
        4.943       4.417       3.887       3.352       2.812       2.265       1.711       1.151      0.5848      1.1534E-02

 HEAD WILL BE SAVED ON UNIT   51 AT END OF TIME STEP  42, STRESS PERIOD    3

 DRAWDOWN WILL BE SAVED ON UNIT   52 AT END OF TIME STEP  42, STRESS PERIOD    3
1
  VOLUMETRIC BUDGET FOR ENTIRE MODEL AT END OF TIME STEP 42 IN STRESS PERIOD   3
  ------------------------------------------------------------------------------

     CUMULATIVE VOLUMES      L**3       RATES FOR THIS TIME STEP      L**3/T
     ------------------                 ------------------------

           IN:                                      IN:
           ---                                      ---
             STORAGE =       20656.0664               STORAGE =         469.6792
       CONSTANT HEAD =           0.0000         CONSTANT HEAD =           0.0000
               WELLS =           0.0000                 WELLS =           0.0000
     HEAD DEP BOUNDS =       82855.2812       HEAD DEP BOUNDS =         598.2726

            TOTAL IN =      103511.3438              TOTAL IN =        1067.9518

          OUT:                                     OUT:
          ----                                     ----
             STORAGE =           0.1866               STORAGE =           0.0000
       CONSTANT HEAD =           0.0000         CONSTANT HEAD =           0.0000
               WELLS =       21000.0000                 WELLS =         500.0000
     HEAD DEP BOUNDS =       82513.0156       HEAD DEP BOUNDS =         567.9501

           TOTAL OUT =      103513.2031             TOTAL OUT =        1067.9502

            IN - OUT =          -1.8594              IN - OUT =       1.5869E-03

 PERCENT DISCREPANCY =           0.00     PERCENT DISCREPANCY =           0.00






          TIME SUMMARY AT END OF TIME STEP  42 IN STRESS PERIOD    3
                    SECONDS     MINUTES      HOURS       DAYS        YEARS
                    -----------------------------------------------------------
   TIME STEP LENGTH  86400.      1440.0      24.000      1.0000     2.73785E-03
 STRESS PERIOD TIME 3.62880E+06  60480.      1008.0      42.000     0.11499    
         TOTAL TIME 1.23552E+07 2.05920E+05  3432.0      143.00     0.39151    
1
 
 SOLVING FOR HEAD 

 OUTPUT CONTROL FOR STRESS PERIOD    3   TIME STEP  43
    SAVE HEAD FOR ALL LAYERS
    SAVE DRAWDOWN FOR ALL LAYERS
    SAVE BUDGET
    PRINT HEAD FOR ALL LAYERS
    PRINT BUDGET
 UBDSV1 SAVING "         STORAGE" ON UNIT  53 AT TIME STEP 43, STRESS PERIOD   3
 UBDSV2 SAVING "   CONSTANT HEAD" ON UNIT  53 AT TIME STEP 43, STRESS PERIOD   3
 UBDSV1 SAVING "FLOW RIGHT FACE " ON UNIT  53 AT TIME STEP 43, STRESS PERIOD   3
 UBDSV1 SAVING "FLOW FRONT FACE " ON UNIT  53 AT TIME STEP 43, STRESS PERIOD   3
1
              HEAD IN LAYER   1 AT END OF TIME STEP  43 IN STRESS PERIOD    3
  ---------------------------------------------------------------------------

            1           2           3           4           5           6           7           8           9          10
           11          12          13          14          15          16          17          18          19          20
 ........................................................................................................................
   1    9.990       9.501       9.007       8.507       8.002       7.490       6.973       6.453       5.931       5.410    
        4.890       4.371       3.849       3.323       2.791       2.251       1.703       1.146      0.5825      1.1488E-02
   2    9.990       9.496       8.996       8.488       7.972       7.446       6.913       6.375       5.838       5.311    
        4.797       4.291       3.787       3.279       2.761       2.231       1.691       1.140      0.5796      1.1432E-02
   3    9.990       9.486       8.973       8.447       7.905       7.343       6.761       6.166       5.576       5.020    
        4.530       4.077       3.631       3.171       2.691       2.188       1.666       1.126      0.5737      1.1316E-02
   4    9.990       9.473       8.943       8.391       7.805       7.175       6.488       5.740       4.955       4.237    
        3.900       3.638       3.346       2.995       2.586       2.128       1.632       1.109      0.5663      1.1169E-02
   5    9.990       9.465       8.925       8.354       7.734       7.035       6.209       5.166       3.734       1.537    
        2.655       3.043       3.052       2.846       2.509       2.088       1.612       1.099      0.5623      1.1090E-02
   6    9.990       9.473       8.943       8.391       7.806       7.175       6.488       5.740       4.956       4.237    
        3.900       3.639       3.346       2.995       2.586       2.128       1.632       1.109      0.5663      1.1170E-02
   7    9.990       9.486       8.973       8.448       7.905       7.343       6.762       6.167       5.577       5.021    
        4.532       4.079       3.632       3.172       2.691       2.189       1.666       1.127      0.5738      1.1317E-02
   8    9.990       9.496       8.997       8.490       7.974       7.449       6.917       6.379       5.843       5.316    
        4.801       4.296       3.791       3.282       2.763       2.233       1.692       1.140      0.5799      1.1437E-02
   9    9.990       9.502       9.010       8.512       8.009       7.500       6.986       6.468       5.948       5.427    
        4.907       4.386       3.862       3.333       2.798       2.256       1.706       1.148      0.5833      1.1504E-02
  10    9.990       9.505       9.015       8.521       8.022       7.518       7.010       6.498       5.983       5.464    
        4.942       4.416       3.886       3.351       2.811       2.264       1.711       1.151      0.5847      1.1531E-02

 HEAD WILL BE SAVED ON UNIT   51 AT END OF TIME STEP  43, STRESS PERIOD    3

 DRAWDOWN WILL BE SAVED ON UNIT   52 AT END OF TIME STEP  43, STRESS PERIOD    3
1
  VOLUMETRIC BUDGET FOR ENTIRE MODEL AT END OF TIME STEP 43 IN STRESS PERIOD   3
  ------------------------------------------------------------------------------

     CUMULATIVE VOLUMES      L**3       RATES FOR THIS TIME STEP      L**3/T
     ------------------                 ------------------------

           IN:                                      IN:
           ---                                      ---
             STORAGE =       21123.9375               STORAGE =         467.8720
       CONSTANT HEAD =           0.0000         CONSTANT HEAD =           0.0000
               WELLS =           0.0000                 WELLS =           0.0000
     HEAD DEP BOUNDS =       83454.6875       HEAD DEP BOUNDS =         599.4049

            TOTAL IN =      104578.6250              TOTAL IN =        1067.2770

          OUT:                                     OUT:
          ----                                     ----
             STORAGE =           0.1866               STORAGE =           0.0000
       CONSTANT HEAD =           0.0000         CONSTANT HEAD =           0.0000
               WELLS =       21500.0000                 WELLS =         500.0000
     HEAD DEP BOUNDS =       83080.2891       HEAD DEP BOUNDS =         567.2732

           TOTAL OUT =      104580.4766             TOTAL OUT =        1067.2732

            IN - OUT =          -1.8516              IN - OUT =       3.7842E-03

 PERCENT DISCREPANCY =           0.00     PERCENT DISCREPANCY =           0.00






          TIME SUMMARY AT END OF TIME STEP  43 IN STRESS PERIOD    3
                    SECONDS     MINUTES      HOURS       DAYS        YEARS
                    -----------------------------------------------------------
   TIME STEP LENGTH  86400.      1440.0      24.000      1.0000     2.73785E-03
 STRESS PERIOD TIME 3.71520E+06  61920.      1032.0      43.000     0.11773    
         TOTAL TIME 1.24416E+07 2.07360E+05  3456.0      144.00     0.39425    
1
 
 SOLVING FOR HEAD 

 OUTPUT CONTROL FOR STRESS PERIOD    3   TIME STEP  44
    SAVE HEAD FOR ALL LAYERS
    SAVE DRAWDOWN FOR ALL LAYERS
    SAVE BUDGET
    PRINT HEAD FOR ALL LAYERS
    PRINT BUDGET
 UBDSV1 SAVING "         STORAGE" ON UNIT  53 AT TIME STEP 44, STRESS PERIOD   3
 UBDSV2 SAVING "   CONSTANT HEAD" ON UNIT  53 AT TIME STEP 44, STRESS PERIOD   3
 UBDSV1 SAVING "FLOW RIGHT FACE " ON UNIT  53 AT TIME STEP 44, STRESS PERIOD   3
 UBDSV1 SAVING "FLOW FRONT FACE " ON UNIT  53 AT TIME STEP 44, STRESS PERIOD   3
1
              HEAD IN LAYER   1 AT END OF TIME STEP  44 IN STRESS PERIOD    3
  ---------------------------------------------------------------------------

            1           2           3           4           5           6           7           8           9          10
           11          12          13          14          15          16          17          18          19          20
 ........................................................................................................................
   1    9.990       9.500       9.006       8.506       7.999       7.487       6.970       6.449       5.927       5.406    
        4.886       4.367       3.846       3.321       2.789       2.249       1.702       1.146      0.5822      1.1482E-02
   2    9.990       9.495       8.994       8.486       7.969       7.442       6.908       6.369       5.832       5.304    
        4.790       4.285       3.782       3.274       2.757       2.229       1.689       1.139      0.5791      1.1422E-02
   3    9.990       9.485       8.971       8.444       7.900       7.336       6.752       6.156       5.565       5.009    
        4.520       4.068       3.622       3.164       2.685       2.184       1.663       1.125      0.5729      1.1299E-02
   4    9.990       9.471       8.939       8.385       7.798       7.165       6.476       5.726       4.940       4.221    
        3.885       3.624       3.334       2.985       2.578       2.122       1.628       1.106      0.5651      1.1146E-02
   5    9.990       9.463       8.921       8.348       7.726       7.025       6.195       5.150       3.716       1.518    
        2.637       3.027       3.038       2.835       2.500       2.082       1.608       1.096      0.5609      1.1064E-02
   6    9.990       9.471       8.939       8.385       7.798       7.166       6.476       5.727       4.941       4.222    
        3.885       3.624       3.334       2.985       2.578       2.122       1.628       1.107      0.5652      1.1147E-02
   7    9.990       9.485       8.971       8.444       7.900       7.337       6.754       6.158       5.567       5.010    
        4.521       4.069       3.623       3.165       2.686       2.185       1.663       1.125      0.5730      1.1301E-02
   8    9.990       9.496       8.995       8.488       7.971       7.445       6.912       6.374       5.837       5.310    
        4.795       4.290       3.786       3.277       2.759       2.230       1.690       1.139      0.5794      1.1427E-02
   9    9.990       9.502       9.009       8.511       8.007       7.498       6.983       6.465       5.945       5.424    
        4.904       4.383       3.859       3.331       2.796       2.254       1.705       1.148      0.5831      1.1499E-02
  10    9.990       9.505       9.015       8.520       8.021       7.517       7.009       6.497       5.981       5.462    
        4.940       4.414       3.885       3.350       2.810       2.264       1.711       1.151      0.5846      1.1529E-02

 HEAD WILL BE SAVED ON UNIT   51 AT END OF TIME STEP  44, STRESS PERIOD    3

 DRAWDOWN WILL BE SAVED ON UNIT   52 AT END OF TIME STEP  44, STRESS PERIOD    3
1
  VOLUMETRIC BUDGET FOR ENTIRE MODEL AT END OF TIME STEP 44 IN STRESS PERIOD   3
  ------------------------------------------------------------------------------

     CUMULATIVE VOLUMES      L**3       RATES FOR THIS TIME STEP      L**3/T
     ------------------                 ------------------------

           IN:                                      IN:
           ---                                      ---
             STORAGE =       21589.9648               STORAGE =         466.0283
       CONSTANT HEAD =           0.0000         CONSTANT HEAD =           0.0000
               WELLS =           0.0000                 WELLS =           0.0000
     HEAD DEP BOUNDS =       84055.2344       HEAD DEP BOUNDS =         600.5506

            TOTAL IN =      105645.2031              TOTAL IN =        1066.5789

          OUT:                                     OUT:
          ----                                     ----
             STORAGE =           0.1866               STORAGE =           0.0000
       CONSTANT HEAD =           0.0000         CONSTANT HEAD =           0.0000
               WELLS =       22000.0000                 WELLS =         500.0000
     HEAD DEP BOUNDS =       83646.8672       HEAD DEP BOUNDS =         566.5763

           TOTAL OUT =      105647.0547             TOTAL OUT =        1066.5763

            IN - OUT =          -1.8516              IN - OUT =       2.5635E-03

 PERCENT DISCREPANCY =           0.00     PERCENT DISCREPANCY =           0.00






          TIME SUMMARY AT END OF TIME STEP  44 IN STRESS PERIOD    3
                    SECONDS     MINUTES      HOURS       DAYS        YEARS
                    -----------------------------------------------------------
   TIME STEP LENGTH  86400.      1440.0      24.000      1.0000     2.73785E-03
 STRESS PERIOD TIME 3.80160E+06  63360.      1056.0      44.000     0.12047    
         TOTAL TIME 1.25280E+07 2.08800E+05  3480.0      145.00     0.39699    
1
 
 SOLVING FOR HEAD 

 OUTPUT CONTROL FOR STRESS PERIOD    3   TIME STEP  45
    SAVE HEAD FOR ALL LAYERS
    SAVE DRAWDOWN FOR ALL LAYERS
    SAVE BUDGET
    PRINT HEAD FOR ALL LAYERS
    PRINT BUDGET
 UBDSV1 SAVING "         STORAGE" ON UNIT  53 AT TIME STEP 45, STRESS PERIOD   3
 UBDSV2 SAVING "   CONSTANT HEAD" ON UNIT  53 AT TIME STEP 45, STRESS PERIOD   3
 UBDSV1 SAVING "FLOW RIGHT FACE " ON UNIT  53 AT TIME STEP 45, STRESS PERIOD   3
 UBDSV1 SAVING "FLOW FRONT FACE " ON UNIT  53 AT TIME STEP 45, STRESS PERIOD   3
1
              HEAD IN LAYER   1 AT END OF TIME STEP  45 IN STRESS PERIOD    3
  ---------------------------------------------------------------------------

            1           2           3           4           5           6           7           8           9          10
           11          12          13          14          15          16          17          18          19          20
 ........................................................................................................................
   1    9.990       9.500       9.005       8.504       7.997       7.485       6.967       6.446       5.923       5.402    
        4.882       4.363       3.843       3.318       2.787       2.248       1.700       1.145      0.5819      1.1475E-02
   2    9.990       9.494       8.993       8.484       7.965       7.438       6.903       6.363       5.826       5.298    
        4.784       4.279       3.777       3.270       2.754       2.226       1.687       1.138      0.5786      1.1411E-02
   3    9.990       9.483       8.968       8.440       7.894       7.329       6.744       6.147       5.555       4.998    
        4.509       4.058       3.613       3.157       2.680       2.180       1.660       1.123      0.5720      1.1282E-02
   4    9.990       9.469       8.936       8.380       7.791       7.156       6.464       5.713       4.926       4.206    
        3.870       3.610       3.321       2.975       2.570       2.116       1.624       1.104      0.5639      1.1122E-02
   5    9.989       9.462       8.917       8.343       7.718       7.014       6.182       5.135       3.699       1.500    
        2.619       3.011       3.024       2.823       2.491       2.075       1.603       1.093      0.5596      1.1037E-02
   6    9.990       9.469       8.936       8.380       7.791       7.156       6.465       5.713       4.926       4.206    
        3.870       3.611       3.322       2.975       2.570       2.116       1.624       1.104      0.5640      1.1123E-02
   7    9.990       9.484       8.968       8.440       7.895       7.330       6.745       6.148       5.556       5.000    
        4.511       4.059       3.615       3.158       2.680       2.181       1.660       1.123      0.5721      1.1284E-02
   8    9.990       9.495       8.994       8.485       7.968       7.441       6.907       6.368       5.831       5.304    
        4.789       4.284       3.781       3.273       2.756       2.228       1.689       1.138      0.5789      1.1418E-02
   9    9.990       9.502       9.008       8.510       8.006       7.496       6.981       6.462       5.942       5.421    
        4.901       4.380       3.857       3.329       2.795       2.253       1.704       1.147      0.5828      1.1494E-02
  10    9.990       9.504       9.014       8.519       8.020       7.516       7.008       6.495       5.979       5.460    
        4.938       4.413       3.883       3.349       2.809       2.263       1.710       1.151      0.5844      1.1526E-02

 HEAD WILL BE SAVED ON UNIT   51 AT END OF TIME STEP  45, STRESS PERIOD    3

 DRAWDOWN WILL BE SAVED ON UNIT   52 AT END OF TIME STEP  45, STRESS PERIOD    3
1
  VOLUMETRIC BUDGET FOR ENTIRE MODEL AT END OF TIME STEP 45 IN STRESS PERIOD   3
  ------------------------------------------------------------------------------

     CUMULATIVE VOLUMES      L**3       RATES FOR THIS TIME STEP      L**3/T
     ------------------                 ------------------------

           IN:                                      IN:
           ---                                      ---
             STORAGE =       22054.1172               STORAGE =         464.1527
       CONSTANT HEAD =           0.0000         CONSTANT HEAD =           0.0000
               WELLS =           0.0000                 WELLS =           0.0000
     HEAD DEP BOUNDS =       84656.9453       HEAD DEP BOUNDS =         601.7087

            TOTAL IN =      106711.0625              TOTAL IN =        1065.8615

          OUT:                                     OUT:
          ----                                     ----
             STORAGE =           0.1866               STORAGE =           0.0000
       CONSTANT HEAD =           0.0000         CONSTANT HEAD =           0.0000
               WELLS =       22500.0000                 WELLS =         500.0000
     HEAD DEP BOUNDS =       84212.7266       HEAD DEP BOUNDS =         565.8605

           TOTAL OUT =      106712.9141             TOTAL OUT =        1065.8605

            IN - OUT =          -1.8516              IN - OUT =       9.7656E-04

 PERCENT DISCREPANCY =           0.00     PERCENT DISCREPANCY =           0.00






          TIME SUMMARY AT END OF TIME STEP  45 IN STRESS PERIOD    3
                    SECONDS     MINUTES      HOURS       DAYS        YEARS
                    -----------------------------------------------------------
   TIME STEP LENGTH  86400.      1440.0      24.000      1.0000     2.73785E-03
 STRESS PERIOD TIME 3.88800E+06  64800.      1080.0      45.000     0.12320    
         TOTAL TIME 1.26144E+07 2.10240E+05  3504.0      146.00     0.39973    
1
 
 SOLVING FOR HEAD 

 OUTPUT CONTROL FOR STRESS PERIOD    3   TIME STEP  46
    SAVE HEAD FOR ALL LAYERS
    SAVE DRAWDOWN FOR ALL LAYERS
    SAVE BUDGET
    PRINT HEAD FOR ALL LAYERS
    PRINT BUDGET
 UBDSV1 SAVING "         STORAGE" ON UNIT  53 AT TIME STEP 46, STRESS PERIOD   3
 UBDSV2 SAVING "   CONSTANT HEAD" ON UNIT  53 AT TIME STEP 46, STRESS PERIOD   3
 UBDSV1 SAVING "FLOW RIGHT FACE " ON UNIT  53 AT TIME STEP 46, STRESS PERIOD   3
 UBDSV1 SAVING "FLOW FRONT FACE " ON UNIT  53 AT TIME STEP 46, STRESS PERIOD   3
1
              HEAD IN LAYER   1 AT END OF TIME STEP  46 IN STRESS PERIOD    3
  ---------------------------------------------------------------------------

            1           2           3           4           5           6           7           8           9          10
           11          12          13          14          15          16          17          18          19          20
 ........................................................................................................................
   1    9.990       9.499       9.004       8.502       7.995       7.482       6.963       6.442       5.919       5.397    
        4.878       4.359       3.839       3.315       2.784       2.246       1.699       1.144      0.5815      1.1468E-02
   2    9.990       9.494       8.991       8.481       7.962       7.434       6.897       6.357       5.819       5.291    
        4.777       4.273       3.772       3.266       2.750       2.224       1.686       1.137      0.5781      1.1400E-02
   3    9.990       9.482       8.966       8.436       7.889       7.322       6.736       6.137       5.544       4.987    
        4.499       4.048       3.605       3.150       2.674       2.176       1.657       1.121      0.5712      1.1265E-02
   4    9.990       9.468       8.933       8.375       7.784       7.147       6.453       5.700       4.911       4.191    
        3.855       3.597       3.309       2.965       2.562       2.110       1.620       1.101      0.5627      1.1098E-02
   5    9.989       9.460       8.914       8.337       7.710       7.004       6.170       5.120       3.683       1.482    
        2.602       2.995       3.011       2.812       2.483       2.069       1.598       1.091      0.5582      1.1010E-02
   6    9.990       9.468       8.933       8.375       7.784       7.147       6.453       5.700       4.912       4.191    
        3.855       3.597       3.310       2.965       2.562       2.110       1.620       1.101      0.5627      1.1099E-02
   7    9.990       9.482       8.966       8.437       7.890       7.323       6.737       6.139       5.546       4.989    
        4.500       4.050       3.606       3.151       2.675       2.176       1.658       1.121      0.5713      1.1267E-02
   8    9.990       9.494       8.993       8.483       7.965       7.437       6.902       6.363       5.825       5.297    
        4.783       4.279       3.776       3.269       2.753       2.226       1.687       1.137      0.5784      1.1407E-02
   9    9.990       9.501       9.008       8.509       8.004       7.494       6.978       6.460       5.939       5.418    
        4.898       4.377       3.854       3.327       2.793       2.252       1.703       1.147      0.5826      1.1489E-02
  10    9.990       9.504       9.014       8.519       8.019       7.515       7.006       6.494       5.977       5.458    
        4.936       4.411       3.882       3.348       2.808       2.262       1.710       1.150      0.5843      1.1523E-02

 HEAD WILL BE SAVED ON UNIT   51 AT END OF TIME STEP  46, STRESS PERIOD    3

 DRAWDOWN WILL BE SAVED ON UNIT   52 AT END OF TIME STEP  46, STRESS PERIOD    3
1
  VOLUMETRIC BUDGET FOR ENTIRE MODEL AT END OF TIME STEP 46 IN STRESS PERIOD   3
  ------------------------------------------------------------------------------

     CUMULATIVE VOLUMES      L**3       RATES FOR THIS TIME STEP      L**3/T
     ------------------                 ------------------------

           IN:                                      IN:
           ---                                      ---
             STORAGE =       22516.3691               STORAGE =         462.2520
       CONSTANT HEAD =           0.0000         CONSTANT HEAD =           0.0000
               WELLS =           0.0000                 WELLS =           0.0000
     HEAD DEP BOUNDS =       85259.8281       HEAD DEP BOUNDS =         602.8852

            TOTAL IN =      107776.1953              TOTAL IN =        1065.1372

          OUT:                                     OUT:
          ----                                     ----
             STORAGE =           0.1866               STORAGE =           0.0000
       CONSTANT HEAD =           0.0000         CONSTANT HEAD =           0.0000
               WELLS =       23000.0000                 WELLS =         500.0000
     HEAD DEP BOUNDS =       84777.8594       HEAD DEP BOUNDS =         565.1299

           TOTAL OUT =      107778.0469             TOTAL OUT =        1065.1299

            IN - OUT =          -1.8516              IN - OUT =       7.3242E-03

 PERCENT DISCREPANCY =           0.00     PERCENT DISCREPANCY =           0.00






          TIME SUMMARY AT END OF TIME STEP  46 IN STRESS PERIOD    3
                    SECONDS     MINUTES      HOURS       DAYS        YEARS
                    -----------------------------------------------------------
   TIME STEP LENGTH  86400.      1440.0      24.000      1.0000     2.73785E-03
 STRESS PERIOD TIME 3.97440E+06  66240.      1104.0      46.000     0.12594    
         TOTAL TIME 1.27008E+07 2.11680E+05  3528.0      147.00     0.40246    
1
 
 SOLVING FOR HEAD 

 OUTPUT CONTROL FOR STRESS PERIOD    3   TIME STEP  47
    SAVE HEAD FOR ALL LAYERS
    SAVE DRAWDOWN FOR ALL LAYERS
    SAVE BUDGET
    PRINT HEAD FOR ALL LAYERS
    PRINT BUDGET
 UBDSV1 SAVING "         STORAGE" ON UNIT  53 AT TIME STEP 47, STRESS PERIOD   3
 UBDSV2 SAVING "   CONSTANT HEAD" ON UNIT  53 AT TIME STEP 47, STRESS PERIOD   3
 UBDSV1 SAVING "FLOW RIGHT FACE " ON UNIT  53 AT TIME STEP 47, STRESS PERIOD   3
 UBDSV1 SAVING "FLOW FRONT FACE " ON UNIT  53 AT TIME STEP 47, STRESS PERIOD   3
1
              HEAD IN LAYER   1 AT END OF TIME STEP  47 IN STRESS PERIOD    3
  ---------------------------------------------------------------------------

            1           2           3           4           5           6           7           8           9          10
           11          12          13          14          15          16          17          18          19          20
 ........................................................................................................................
   1    9.990       9.499       9.003       8.501       7.993       7.479       6.960       6.438       5.915       5.393    
        4.874       4.355       3.836       3.312       2.782       2.244       1.698       1.143      0.5811      1.1461E-02
   2    9.990       9.493       8.990       8.479       7.959       7.429       6.892       6.351       5.813       5.284    
        4.771       4.267       3.766       3.261       2.747       2.221       1.684       1.135      0.5775      1.1389E-02
   3    9.990       9.481       8.963       8.432       7.884       7.315       6.728       6.128       5.534       4.977    
        4.488       4.038       3.596       3.142       2.668       2.172       1.654       1.119      0.5703      1.1247E-02
   4    9.990       9.466       8.929       8.370       7.777       7.138       6.442       5.687       4.897       4.176    
        3.841       3.583       3.298       2.955       2.554       2.104       1.616       1.099      0.5615      1.1074E-02
   5    9.989       9.458       8.910       8.331       7.702       6.993       6.157       5.106       3.667       1.464    
        2.586       2.980       2.997       2.801       2.474       2.062       1.594       1.088      0.5568      1.0982E-02
   6    9.990       9.466       8.929       8.370       7.777       7.138       6.442       5.687       4.898       4.177    
        3.841       3.584       3.298       2.955       2.554       2.105       1.616       1.099      0.5615      1.1074E-02
   7    9.990       9.481       8.964       8.433       7.885       7.317       6.729       6.130       5.536       4.979    
        4.490       4.040       3.598       3.144       2.669       2.172       1.655       1.119      0.5704      1.1249E-02
   8    9.990       9.494       8.991       8.481       7.962       7.433       6.897       6.357       5.819       5.291    
        4.777       4.273       3.771       3.265       2.750       2.223       1.685       1.136      0.5779      1.1397E-02
   9    9.990       9.501       9.007       8.507       8.002       7.492       6.976       6.457       5.936       5.415    
        4.894       4.374       3.852       3.324       2.791       2.251       1.702       1.146      0.5823      1.1484E-02
  10    9.990       9.504       9.013       8.518       8.018       7.514       7.005       6.492       5.976       5.457    
        4.935       4.410       3.881       3.347       2.807       2.261       1.709       1.150      0.5841      1.1520E-02

 HEAD WILL BE SAVED ON UNIT   51 AT END OF TIME STEP  47, STRESS PERIOD    3

 DRAWDOWN WILL BE SAVED ON UNIT   52 AT END OF TIME STEP  47, STRESS PERIOD    3
1
  VOLUMETRIC BUDGET FOR ENTIRE MODEL AT END OF TIME STEP 47 IN STRESS PERIOD   3
  ------------------------------------------------------------------------------

     CUMULATIVE VOLUMES      L**3       RATES FOR THIS TIME STEP      L**3/T
     ------------------                 ------------------------

           IN:                                      IN:
           ---                                      ---
             STORAGE =       22976.6855               STORAGE =         460.3161
       CONSTANT HEAD =           0.0000         CONSTANT HEAD =           0.0000
               WELLS =           0.0000                 WELLS =           0.0000
     HEAD DEP BOUNDS =       85863.8906       HEAD DEP BOUNDS =         604.0648

            TOTAL IN =      108840.5781              TOTAL IN =        1064.3809

          OUT:                                     OUT:
          ----                                     ----
             STORAGE =           0.1866               STORAGE =           0.0000
       CONSTANT HEAD =           0.0000         CONSTANT HEAD =           0.0000
               WELLS =       23500.0000                 WELLS =         500.0000
     HEAD DEP BOUNDS =       85342.2422       HEAD DEP BOUNDS =         564.3801

           TOTAL OUT =      108842.4297             TOTAL OUT =        1064.3801

            IN - OUT =          -1.8516              IN - OUT =       7.3242E-04

 PERCENT DISCREPANCY =           0.00     PERCENT DISCREPANCY =           0.00






          TIME SUMMARY AT END OF TIME STEP  47 IN STRESS PERIOD    3
                    SECONDS     MINUTES      HOURS       DAYS        YEARS
                    -----------------------------------------------------------
   TIME STEP LENGTH  86400.      1440.0      24.000      1.0000     2.73785E-03
 STRESS PERIOD TIME 4.06080E+06  67680.      1128.0      47.000     0.12868    
         TOTAL TIME 1.27872E+07 2.13120E+05  3552.0      148.00     0.40520    
1
 
 SOLVING FOR HEAD 

 OUTPUT CONTROL FOR STRESS PERIOD    3   TIME STEP  48
    SAVE HEAD FOR ALL LAYERS
    SAVE DRAWDOWN FOR ALL LAYERS
    SAVE BUDGET
    PRINT HEAD FOR ALL LAYERS
    PRINT BUDGET
 UBDSV1 SAVING "         STORAGE" ON UNIT  53 AT TIME STEP 48, STRESS PERIOD   3
 UBDSV2 SAVING "   CONSTANT HEAD" ON UNIT  53 AT TIME STEP 48, STRESS PERIOD   3
 UBDSV1 SAVING "FLOW RIGHT FACE " ON UNIT  53 AT TIME STEP 48, STRESS PERIOD   3
 UBDSV1 SAVING "FLOW FRONT FACE " ON UNIT  53 AT TIME STEP 48, STRESS PERIOD   3
1
              HEAD IN LAYER   1 AT END OF TIME STEP  48 IN STRESS PERIOD    3
  ---------------------------------------------------------------------------

            1           2           3           4           5           6           7           8           9          10
           11          12          13          14          15          16          17          18          19          20
 ........................................................................................................................
   1    9.990       9.498       9.001       8.499       7.990       7.476       6.956       6.434       5.910       5.389    
        4.869       4.351       3.832       3.309       2.780       2.242       1.697       1.143      0.5807      1.1453E-02
   2    9.990       9.492       8.988       8.476       7.955       7.425       6.887       6.345       5.806       5.278    
        4.764       4.261       3.761       3.257       2.743       2.218       1.682       1.134      0.5769      1.1377E-02
   3    9.990       9.480       8.961       8.428       7.879       7.309       6.720       6.119       5.524       4.966    
        4.478       4.029       3.588       3.135       2.663       2.167       1.651       1.117      0.5693      1.1228E-02
   4    9.990       9.464       8.926       8.365       7.769       7.128       6.431       5.674       4.883       4.162    
        3.826       3.570       3.286       2.945       2.546       2.098       1.612       1.096      0.5602      1.1049E-02
   5    9.989       9.456       8.906       8.325       7.694       6.983       6.145       5.091       3.651       1.447    
        2.570       2.965       2.984       2.790       2.465       2.056       1.589       1.085      0.5554      1.0955E-02
   6    9.990       9.465       8.926       8.365       7.770       7.129       6.431       5.675       4.884       4.162    
        3.827       3.571       3.286       2.945       2.547       2.099       1.612       1.096      0.5603      1.1049E-02
   7    9.990       9.480       8.961       8.429       7.880       7.310       6.721       6.121       5.526       4.969    
        4.480       4.031       3.589       3.137       2.664       2.168       1.652       1.118      0.5695      1.1231E-02
   8    9.990       9.493       8.990       8.479       7.959       7.429       6.893       6.352       5.813       5.285    
        4.771       4.268       3.766       3.261       2.746       2.221       1.683       1.135      0.5773      1.1386E-02
   9    9.990       9.500       9.006       8.506       8.001       7.489       6.973       6.454       5.932       5.411    
        4.891       4.371       3.849       3.322       2.789       2.249       1.701       1.145      0.5820      1.1478E-02
  10    9.990       9.504       9.013       8.517       8.017       7.512       7.003       6.490       5.974       5.455    
        4.933       4.408       3.879       3.345       2.806       2.261       1.709       1.150      0.5840      1.1517E-02

 HEAD WILL BE SAVED ON UNIT   51 AT END OF TIME STEP  48, STRESS PERIOD    3

 DRAWDOWN WILL BE SAVED ON UNIT   52 AT END OF TIME STEP  48, STRESS PERIOD    3
1
  VOLUMETRIC BUDGET FOR ENTIRE MODEL AT END OF TIME STEP 48 IN STRESS PERIOD   3
  ------------------------------------------------------------------------------

     CUMULATIVE VOLUMES      L**3       RATES FOR THIS TIME STEP      L**3/T
     ------------------                 ------------------------

           IN:                                      IN:
           ---                                      ---
             STORAGE =       23435.0469               STORAGE =         458.3617
       CONSTANT HEAD =           0.0000         CONSTANT HEAD =           0.0000
               WELLS =           0.0000                 WELLS =           0.0000
     HEAD DEP BOUNDS =       86469.1484       HEAD DEP BOUNDS =         605.2605

            TOTAL IN =      109904.1953              TOTAL IN =        1063.6222

          OUT:                                     OUT:
          ----                                     ----
             STORAGE =           0.1866               STORAGE =           0.0000
       CONSTANT HEAD =           0.0000         CONSTANT HEAD =           0.0000
               WELLS =       24000.0000                 WELLS =         500.0000
     HEAD DEP BOUNDS =       85905.8594       HEAD DEP BOUNDS =         563.6171

           TOTAL OUT =      109906.0469             TOTAL OUT =        1063.6172

            IN - OUT =          -1.8516              IN - OUT =       5.0049E-03

 PERCENT DISCREPANCY =           0.00     PERCENT DISCREPANCY =           0.00






          TIME SUMMARY AT END OF TIME STEP  48 IN STRESS PERIOD    3
                    SECONDS     MINUTES      HOURS       DAYS        YEARS
                    -----------------------------------------------------------
   TIME STEP LENGTH  86400.      1440.0      24.000      1.0000     2.73785E-03
 STRESS PERIOD TIME 4.14720E+06  69120.      1152.0      48.000     0.13142    
         TOTAL TIME 1.28736E+07 2.14560E+05  3576.0      149.00     0.40794    
1
 
 SOLVING FOR HEAD 

 OUTPUT CONTROL FOR STRESS PERIOD    3   TIME STEP  49
    SAVE HEAD FOR ALL LAYERS
    SAVE DRAWDOWN FOR ALL LAYERS
    SAVE BUDGET
    PRINT HEAD FOR ALL LAYERS
    PRINT BUDGET
 UBDSV1 SAVING "         STORAGE" ON UNIT  53 AT TIME STEP 49, STRESS PERIOD   3
 UBDSV2 SAVING "   CONSTANT HEAD" ON UNIT  53 AT TIME STEP 49, STRESS PERIOD   3
 UBDSV1 SAVING "FLOW RIGHT FACE " ON UNIT  53 AT TIME STEP 49, STRESS PERIOD   3
 UBDSV1 SAVING "FLOW FRONT FACE " ON UNIT  53 AT TIME STEP 49, STRESS PERIOD   3
1
              HEAD IN LAYER   1 AT END OF TIME STEP  49 IN STRESS PERIOD    3
  ---------------------------------------------------------------------------

            1           2           3           4           5           6           7           8           9          10
           11          12          13          14          15          16          17          18          19          20
 ........................................................................................................................
   1    9.990       9.498       9.000       8.497       7.988       7.473       6.953       6.430       5.906       5.384    
        4.865       4.347       3.828       3.306       2.777       2.240       1.695       1.142      0.5803      1.1445E-02
   2    9.990       9.491       8.986       8.474       7.952       7.420       6.882       6.339       5.800       5.271    
        4.758       4.255       3.756       3.252       2.739       2.215       1.680       1.133      0.5763      1.1365E-02
   3    9.990       9.478       8.958       8.425       7.873       7.302       6.712       6.110       5.514       4.956    
        4.468       4.019       3.579       3.128       2.657       2.163       1.648       1.115      0.5684      1.1210E-02
   4    9.990       9.463       8.923       8.360       7.762       7.119       6.420       5.662       4.870       4.148    
        3.812       3.557       3.275       2.935       2.539       2.093       1.608       1.094      0.5589      1.1024E-02
   5    9.989       9.454       8.903       8.320       7.686       6.973       6.133       5.077       3.635       1.431    
        2.554       2.950       2.971       2.779       2.457       2.049       1.585       1.082      0.5540      1.0927E-02
   6    9.990       9.463       8.923       8.360       7.763       7.120       6.421       5.662       4.870       4.148    
        3.813       3.558       3.275       2.936       2.539       2.093       1.608       1.094      0.5590      1.1024E-02
   7    9.990       9.479       8.959       8.425       7.874       7.304       6.713       6.112       5.516       4.959    
        4.470       4.021       3.581       3.130       2.658       2.164       1.649       1.116      0.5686      1.1213E-02
   8    9.990       9.492       8.988       8.476       7.955       7.425       6.888       6.346       5.807       5.279    
        4.765       4.262       3.761       3.257       2.743       2.218       1.681       1.134      0.5768      1.1375E-02
   9    9.990       9.500       9.005       8.505       7.999       7.487       6.971       6.451       5.929       5.408    
        4.888       4.368       3.846       3.320       2.788       2.248       1.700       1.145      0.5817      1.1472E-02
  10    9.990       9.503       9.012       8.516       8.016       7.511       7.002       6.488       5.972       5.453    
        4.931       4.406       3.877       3.344       2.805       2.260       1.708       1.149      0.5838      1.1513E-02

 HEAD WILL BE SAVED ON UNIT   51 AT END OF TIME STEP  49, STRESS PERIOD    3

 DRAWDOWN WILL BE SAVED ON UNIT   52 AT END OF TIME STEP  49, STRESS PERIOD    3
1
  VOLUMETRIC BUDGET FOR ENTIRE MODEL AT END OF TIME STEP 49 IN STRESS PERIOD   3
  ------------------------------------------------------------------------------

     CUMULATIVE VOLUMES      L**3       RATES FOR THIS TIME STEP      L**3/T
     ------------------                 ------------------------

           IN:                                      IN:
           ---                                      ---
             STORAGE =       23891.4258               STORAGE =         456.3788
       CONSTANT HEAD =           0.0000         CONSTANT HEAD =           0.0000
               WELLS =           0.0000                 WELLS =           0.0000
     HEAD DEP BOUNDS =       87075.6094       HEAD DEP BOUNDS =         606.4608

            TOTAL IN =      110967.0312              TOTAL IN =        1062.8396

          OUT:                                     OUT:
          ----                                     ----
             STORAGE =           0.1866               STORAGE =           0.0000
       CONSTANT HEAD =           0.0000         CONSTANT HEAD =           0.0000
               WELLS =       24500.0000                 WELLS =         500.0000
     HEAD DEP BOUNDS =       86468.6953       HEAD DEP BOUNDS =         562.8371

           TOTAL OUT =      110968.8828             TOTAL OUT =        1062.8372

            IN - OUT =          -1.8516              IN - OUT =       2.4414E-03

 PERCENT DISCREPANCY =           0.00     PERCENT DISCREPANCY =           0.00






          TIME SUMMARY AT END OF TIME STEP  49 IN STRESS PERIOD    3
                    SECONDS     MINUTES      HOURS       DAYS        YEARS
                    -----------------------------------------------------------
   TIME STEP LENGTH  86400.      1440.0      24.000      1.0000     2.73785E-03
 STRESS PERIOD TIME 4.23360E+06  70560.      1176.0      49.000     0.13415    
         TOTAL TIME 1.29600E+07 2.16000E+05  3600.0      150.00     0.41068    
1
 
 SOLVING FOR HEAD 

 OUTPUT CONTROL FOR STRESS PERIOD    3   TIME STEP  50
    SAVE HEAD FOR ALL LAYERS
    SAVE DRAWDOWN FOR ALL LAYERS
    SAVE BUDGET
    PRINT HEAD FOR ALL LAYERS
    PRINT BUDGET
 UBDSV1 SAVING "         STORAGE" ON UNIT  53 AT TIME STEP 50, STRESS PERIOD   3
 UBDSV2 SAVING "   CONSTANT HEAD" ON UNIT  53 AT TIME STEP 50, STRESS PERIOD   3
 UBDSV1 SAVING "FLOW RIGHT FACE " ON UNIT  53 AT TIME STEP 50, STRESS PERIOD   3
 UBDSV1 SAVING "FLOW FRONT FACE " ON UNIT  53 AT TIME STEP 50, STRESS PERIOD   3
1
              HEAD IN LAYER   1 AT END OF TIME STEP  50 IN STRESS PERIOD    3
  ---------------------------------------------------------------------------

            1           2           3           4           5           6           7           8           9          10
           11          12          13          14          15          16          17          18          19          20
 ........................................................................................................................
   1    9.990       9.497       8.999       8.495       7.985       7.470       6.949       6.425       5.901       5.379    
        4.860       4.343       3.825       3.303       2.774       2.238       1.694       1.141      0.5799      1.1436E-02
   2    9.990       9.490       8.985       8.471       7.948       7.416       6.876       6.333       5.793       5.264    
        4.751       4.249       3.750       3.247       2.736       2.213       1.678       1.132      0.5757      1.1353E-02
   3    9.990       9.477       8.956       8.421       7.868       7.295       6.704       6.100       5.504       4.946    
        4.458       4.010       3.571       3.121       2.651       2.159       1.645       1.113      0.5674      1.1191E-02
   4    9.989       9.461       8.919       8.354       7.755       7.111       6.409       5.649       4.856       4.134    
        3.799       3.544       3.263       2.926       2.531       2.087       1.604       1.091      0.5577      1.0998E-02
   5    9.989       9.453       8.899       8.314       7.679       6.963       6.121       5.063       3.620       1.414    
        2.538       2.936       2.959       2.769       2.448       2.043       1.580       1.079      0.5526      1.0899E-02
   6    9.989       9.461       8.920       8.355       7.756       7.111       6.410       5.650       4.857       4.134    
        3.799       3.545       3.264       2.926       2.531       2.087       1.604       1.091      0.5577      1.0999E-02
   7    9.990       9.478       8.956       8.422       7.869       7.297       6.706       6.103       5.507       4.948    
        4.460       4.012       3.573       3.123       2.652       2.160       1.646       1.114      0.5676      1.1194E-02
   8    9.990       9.491       8.987       8.474       7.952       7.421       6.883       6.341       5.802       5.273    
        4.759       4.256       3.756       3.252       2.739       2.215       1.680       1.133      0.5762      1.1364E-02
   9    9.990       9.500       9.004       8.503       7.997       7.485       6.968       6.448       5.926       5.405    
        4.885       4.365       3.843       3.318       2.786       2.246       1.699       1.144      0.5814      1.1466E-02
  10    9.990       9.503       9.012       8.516       8.015       7.510       7.000       6.486       5.970       5.451    
        4.929       4.404       3.876       3.343       2.804       2.259       1.707       1.149      0.5836      1.1509E-02

 HEAD WILL BE SAVED ON UNIT   51 AT END OF TIME STEP  50, STRESS PERIOD    3

 DRAWDOWN WILL BE SAVED ON UNIT   52 AT END OF TIME STEP  50, STRESS PERIOD    3
1
  VOLUMETRIC BUDGET FOR ENTIRE MODEL AT END OF TIME STEP 50 IN STRESS PERIOD   3
  ------------------------------------------------------------------------------

     CUMULATIVE VOLUMES      L**3       RATES FOR THIS TIME STEP      L**3/T
     ------------------                 ------------------------

           IN:                                      IN:
           ---                                      ---
             STORAGE =       24345.8047               STORAGE =         454.3795
       CONSTANT HEAD =           0.0000         CONSTANT HEAD =           0.0000
               WELLS =           0.0000                 WELLS =           0.0000
     HEAD DEP BOUNDS =       87683.2734       HEAD DEP BOUNDS =         607.6649

            TOTAL IN =      112029.0781              TOTAL IN =        1062.0444

          OUT:                                     OUT:
          ----                                     ----
             STORAGE =           0.1866               STORAGE =           0.0000
       CONSTANT HEAD =           0.0000         CONSTANT HEAD =           0.0000
               WELLS =       25000.0000                 WELLS =         500.0000
     HEAD DEP BOUNDS =       87030.7422       HEAD DEP BOUNDS =         562.0440

           TOTAL OUT =      112030.9297             TOTAL OUT =        1062.0439

            IN - OUT =          -1.8516              IN - OUT =       4.8828E-04

 PERCENT DISCREPANCY =           0.00     PERCENT DISCREPANCY =           0.00






          TIME SUMMARY AT END OF TIME STEP  50 IN STRESS PERIOD    3
                    SECONDS     MINUTES      HOURS       DAYS        YEARS
                    -----------------------------------------------------------
   TIME STEP LENGTH  86400.      1440.0      24.000      1.0000     2.73785E-03
 STRESS PERIOD TIME 4.32000E+06  72000.      1200.0      50.000     0.13689    
         TOTAL TIME 1.30464E+07 2.17440E+05  3624.0      151.00     0.41342    
1
 
 SOLVING FOR HEAD 

 OUTPUT CONTROL FOR STRESS PERIOD    3   TIME STEP  51
    SAVE HEAD FOR ALL LAYERS
    SAVE DRAWDOWN FOR ALL LAYERS
    SAVE BUDGET
    PRINT HEAD FOR ALL LAYERS
    PRINT BUDGET
 UBDSV1 SAVING "         STORAGE" ON UNIT  53 AT TIME STEP 51, STRESS PERIOD   3
 UBDSV2 SAVING "   CONSTANT HEAD" ON UNIT  53 AT TIME STEP 51, STRESS PERIOD   3
 UBDSV1 SAVING "FLOW RIGHT FACE " ON UNIT  53 AT TIME STEP 51, STRESS PERIOD   3
 UBDSV1 SAVING "FLOW FRONT FACE " ON UNIT  53 AT TIME STEP 51, STRESS PERIOD   3
1
              HEAD IN LAYER   1 AT END OF TIME STEP  51 IN STRESS PERIOD    3
  ---------------------------------------------------------------------------

            1           2           3           4           5           6           7           8           9          10
           11          12          13          14          15          16          17          18          19          20
 ........................................................................................................................
   1    9.990       9.497       8.998       8.493       7.983       7.466       6.945       6.421       5.897       5.375    
        4.856       4.339       3.821       3.299       2.772       2.236       1.692       1.140      0.5794      1.1427E-02
   2    9.990       9.490       8.983       8.468       7.945       7.412       6.871       6.327       5.787       5.258    
        4.745       4.243       3.745       3.243       2.732       2.210       1.676       1.130      0.5750      1.1340E-02
   3    9.990       9.476       8.953       8.417       7.863       7.289       6.696       6.091       5.494       4.936    
        4.448       4.001       3.563       3.114       2.646       2.154       1.642       1.111      0.5665      1.1172E-02
   4    9.989       9.460       8.916       8.349       7.749       7.102       6.399       5.637       4.843       4.120    
        3.785       3.532       3.252       2.916       2.523       2.081       1.599       1.088      0.5564      1.0973E-02
   5    9.989       9.451       8.895       8.309       7.671       6.954       6.109       5.050       3.605       1.398    
        2.523       2.922       2.946       2.758       2.440       2.036       1.575       1.076      0.5512      1.0870E-02
   6    9.989       9.460       8.916       8.350       7.749       7.102       6.399       5.638       4.844       4.121    
        3.786       3.532       3.253       2.917       2.524       2.081       1.600       1.089      0.5564      1.0974E-02
   7    9.990       9.476       8.954       8.418       7.864       7.291       6.698       6.094       5.497       4.939    
        4.451       4.003       3.565       3.116       2.647       2.155       1.643       1.112      0.5667      1.1175E-02
   8    9.990       9.491       8.985       8.471       7.949       7.417       6.878       6.335       5.796       5.267    
        4.753       4.251       3.751       3.248       2.736       2.213       1.678       1.132      0.5756      1.1352E-02
   9    9.990       9.499       9.003       8.502       7.995       7.483       6.965       6.444       5.923       5.401    
        4.881       4.362       3.841       3.315       2.784       2.245       1.698       1.143      0.5810      1.1459E-02
  10    9.990       9.503       9.011       8.515       8.014       7.508       6.998       6.485       5.968       5.449    
        4.927       4.402       3.874       3.341       2.803       2.258       1.707       1.148      0.5834      1.1505E-02

 HEAD WILL BE SAVED ON UNIT   51 AT END OF TIME STEP  51, STRESS PERIOD    3

 DRAWDOWN WILL BE SAVED ON UNIT   52 AT END OF TIME STEP  51, STRESS PERIOD    3
1
  VOLUMETRIC BUDGET FOR ENTIRE MODEL AT END OF TIME STEP 51 IN STRESS PERIOD   3
  ------------------------------------------------------------------------------

     CUMULATIVE VOLUMES      L**3       RATES FOR THIS TIME STEP      L**3/T
     ------------------                 ------------------------

           IN:                                      IN:
           ---                                      ---
             STORAGE =       24798.1602               STORAGE =         452.3548
       CONSTANT HEAD =           0.0000         CONSTANT HEAD =           0.0000
               WELLS =           0.0000                 WELLS =           0.0000
     HEAD DEP BOUNDS =       88292.1562       HEAD DEP BOUNDS =         608.8862

            TOTAL IN =      113090.3125              TOTAL IN =        1061.2410

          OUT:                                     OUT:
          ----                                     ----
             STORAGE =           0.1866               STORAGE =           0.0000
       CONSTANT HEAD =           0.0000         CONSTANT HEAD =           0.0000
               WELLS =       25500.0000                 WELLS =         500.0000
     HEAD DEP BOUNDS =       87591.9766       HEAD DEP BOUNDS =         561.2374

           TOTAL OUT =      113092.1641             TOTAL OUT =        1061.2373

            IN - OUT =          -1.8516              IN - OUT =       3.6621E-03

 PERCENT DISCREPANCY =           0.00     PERCENT DISCREPANCY =           0.00






          TIME SUMMARY AT END OF TIME STEP  51 IN STRESS PERIOD    3
                    SECONDS     MINUTES      HOURS       DAYS        YEARS
                    -----------------------------------------------------------
   TIME STEP LENGTH  86400.      1440.0      24.000      1.0000     2.73785E-03
 STRESS PERIOD TIME 4.40640E+06  73440.      1224.0      51.000     0.13963    
         TOTAL TIME 1.31328E+07 2.18880E+05  3648.0      152.00     0.41615    
1
 
 SOLVING FOR HEAD 

 OUTPUT CONTROL FOR STRESS PERIOD    3   TIME STEP  52
    SAVE HEAD FOR ALL LAYERS
    SAVE DRAWDOWN FOR ALL LAYERS
    SAVE BUDGET
    PRINT HEAD FOR ALL LAYERS
    PRINT BUDGET
 UBDSV1 SAVING "         STORAGE" ON UNIT  53 AT TIME STEP 52, STRESS PERIOD   3
 UBDSV2 SAVING "   CONSTANT HEAD" ON UNIT  53 AT TIME STEP 52, STRESS PERIOD   3
 UBDSV1 SAVING "FLOW RIGHT FACE " ON UNIT  53 AT TIME STEP 52, STRESS PERIOD   3
 UBDSV1 SAVING "FLOW FRONT FACE " ON UNIT  53 AT TIME STEP 52, STRESS PERIOD   3
1
              HEAD IN LAYER   1 AT END OF TIME STEP  52 IN STRESS PERIOD    3
  ---------------------------------------------------------------------------

            1           2           3           4           5           6           7           8           9          10
           11          12          13          14          15          16          17          18          19          20
 ........................................................................................................................
   1    9.990       9.496       8.997       8.492       7.980       7.463       6.941       6.417       5.892       5.370    
        4.851       4.334       3.817       3.296       2.769       2.234       1.691       1.139      0.5790      1.1418E-02
   2    9.990       9.489       8.981       8.466       7.941       7.407       6.866       6.321       5.780       5.251    
        4.738       4.237       3.739       3.238       2.728       2.207       1.674       1.129      0.5744      1.1327E-02
   3    9.990       9.475       8.951       8.413       7.858       7.282       6.688       6.082       5.485       4.926    
        4.438       3.991       3.554       3.107       2.640       2.150       1.639       1.109      0.5655      1.1152E-02
   4    9.989       9.458       8.913       8.344       7.742       7.093       6.388       5.625       4.830       4.107    
        3.772       3.519       3.241       2.907       2.516       2.075       1.595       1.086      0.5551      1.0947E-02
   5    9.989       9.449       8.892       8.303       7.664       6.944       6.097       5.037       3.590       1.382    
        2.508       2.908       2.934       2.748       2.431       2.030       1.571       1.073      0.5497      1.0842E-02
   6    9.989       9.458       8.913       8.345       7.742       7.094       6.389       5.626       4.831       4.107    
        3.773       3.520       3.242       2.907       2.516       2.075       1.595       1.086      0.5551      1.0948E-02
   7    9.990       9.475       8.951       8.414       7.859       7.284       6.690       6.085       5.488       4.929    
        4.441       3.994       3.557       3.109       2.641       2.151       1.640       1.110      0.5657      1.1156E-02
   8    9.990       9.490       8.983       8.469       7.946       7.413       6.873       6.330       5.790       5.261    
        4.747       4.245       3.746       3.244       2.733       2.210       1.676       1.130      0.5750      1.1340E-02
   9    9.990       9.499       9.002       8.501       7.993       7.480       6.962       6.441       5.919       5.398    
        4.878       4.359       3.838       3.313       2.782       2.243       1.697       1.143      0.5807      1.1452E-02
  10    9.990       9.503       9.011       8.514       8.013       7.507       6.997       6.483       5.966       5.446    
        4.925       4.400       3.872       3.340       2.802       2.257       1.706       1.148      0.5832      1.1501E-02

 HEAD WILL BE SAVED ON UNIT   51 AT END OF TIME STEP  52, STRESS PERIOD    3

 DRAWDOWN WILL BE SAVED ON UNIT   52 AT END OF TIME STEP  52, STRESS PERIOD    3
1
  VOLUMETRIC BUDGET FOR ENTIRE MODEL AT END OF TIME STEP 52 IN STRESS PERIOD   3
  ------------------------------------------------------------------------------

     CUMULATIVE VOLUMES      L**3       RATES FOR THIS TIME STEP      L**3/T
     ------------------                 ------------------------

           IN:                                      IN:
           ---                                      ---
             STORAGE =       25248.4668               STORAGE =         450.3073
       CONSTANT HEAD =           0.0000         CONSTANT HEAD =           0.0000
               WELLS =           0.0000                 WELLS =           0.0000
     HEAD DEP BOUNDS =       88902.2656       HEAD DEP BOUNDS =         610.1094

            TOTAL IN =      114150.7344              TOTAL IN =        1060.4167

          OUT:                                     OUT:
          ----                                     ----
             STORAGE =           0.1866               STORAGE =           0.0000
       CONSTANT HEAD =           0.0000         CONSTANT HEAD =           0.0000
               WELLS =       26000.0000                 WELLS =         500.0000
     HEAD DEP BOUNDS =       88152.3906       HEAD DEP BOUNDS =         560.4161

           TOTAL OUT =      114152.5781             TOTAL OUT =        1060.4160

            IN - OUT =          -1.8438              IN - OUT =       7.3242E-04

 PERCENT DISCREPANCY =           0.00     PERCENT DISCREPANCY =           0.00






          TIME SUMMARY AT END OF TIME STEP  52 IN STRESS PERIOD    3
                    SECONDS     MINUTES      HOURS       DAYS        YEARS
                    -----------------------------------------------------------
   TIME STEP LENGTH  86400.      1440.0      24.000      1.0000     2.73785E-03
 STRESS PERIOD TIME 4.49280E+06  74880.      1248.0      52.000     0.14237    
         TOTAL TIME 1.32192E+07 2.20320E+05  3672.0      153.00     0.41889    
1
 
 SOLVING FOR HEAD 

 OUTPUT CONTROL FOR STRESS PERIOD    3   TIME STEP  53
    SAVE HEAD FOR ALL LAYERS
    SAVE DRAWDOWN FOR ALL LAYERS
    SAVE BUDGET
    PRINT HEAD FOR ALL LAYERS
    PRINT BUDGET
 UBDSV1 SAVING "         STORAGE" ON UNIT  53 AT TIME STEP 53, STRESS PERIOD   3
 UBDSV2 SAVING "   CONSTANT HEAD" ON UNIT  53 AT TIME STEP 53, STRESS PERIOD   3
 UBDSV1 SAVING "FLOW RIGHT FACE " ON UNIT  53 AT TIME STEP 53, STRESS PERIOD   3
 UBDSV1 SAVING "FLOW FRONT FACE " ON UNIT  53 AT TIME STEP 53, STRESS PERIOD   3
1
              HEAD IN LAYER   1 AT END OF TIME STEP  53 IN STRESS PERIOD    3
  ---------------------------------------------------------------------------

            1           2           3           4           5           6           7           8           9          10
           11          12          13          14          15          16          17          18          19          20
 ........................................................................................................................
   1    9.990       9.495       8.995       8.490       7.978       7.460       6.937       6.412       5.888       5.365    
        4.846       4.330       3.813       3.293       2.766       2.232       1.689       1.138      0.5785      1.1408E-02
   2    9.990       9.488       8.979       8.463       7.937       7.403       6.860       6.315       5.774       5.244    
        4.731       4.231       3.734       3.233       2.724       2.204       1.672       1.128      0.5737      1.1314E-02
   3    9.990       9.474       8.948       8.409       7.852       7.276       6.680       6.074       5.475       4.916    
        4.428       3.982       3.546       3.100       2.634       2.146       1.636       1.107      0.5645      1.1132E-02
   4    9.989       9.456       8.910       8.339       7.735       7.085       6.378       5.614       4.817       4.093    
        3.759       3.507       3.230       2.898       2.508       2.069       1.591       1.083      0.5537      1.0921E-02
   5    9.989       9.447       8.888       8.298       7.656       6.935       6.086       5.024       3.576       1.367    
        2.493       2.895       2.922       2.738       2.423       2.023       1.566       1.070      0.5483      1.0813E-02
   6    9.989       9.456       8.910       8.340       7.735       7.085       6.379       5.615       4.818       4.094    
        3.760       3.508       3.231       2.898       2.509       2.070       1.591       1.083      0.5538      1.0922E-02
   7    9.990       9.474       8.949       8.410       7.854       7.278       6.682       6.076       5.478       4.919    
        4.431       3.985       3.549       3.102       2.636       2.147       1.636       1.108      0.5647      1.1137E-02
   8    9.990       9.489       8.982       8.467       7.942       7.409       6.868       6.324       5.784       5.254    
        4.741       4.239       3.741       3.239       2.729       2.207       1.674       1.129      0.5744      1.1328E-02
   9    9.990       9.498       9.001       8.499       7.991       7.478       6.960       6.438       5.916       5.394    
        4.875       4.355       3.835       3.310       2.780       2.242       1.696       1.142      0.5804      1.1446E-02
  10    9.990       9.502       9.010       8.513       8.011       7.505       6.995       6.481       5.964       5.444    
        4.923       4.398       3.871       3.338       2.800       2.256       1.705       1.148      0.5830      1.1497E-02

 HEAD WILL BE SAVED ON UNIT   51 AT END OF TIME STEP  53, STRESS PERIOD    3

 DRAWDOWN WILL BE SAVED ON UNIT   52 AT END OF TIME STEP  53, STRESS PERIOD    3
1
  VOLUMETRIC BUDGET FOR ENTIRE MODEL AT END OF TIME STEP 53 IN STRESS PERIOD   3
  ------------------------------------------------------------------------------

     CUMULATIVE VOLUMES      L**3       RATES FOR THIS TIME STEP      L**3/T
     ------------------                 ------------------------

           IN:                                      IN:
           ---                                      ---
             STORAGE =       25696.7129               STORAGE =         448.2470
       CONSTANT HEAD =           0.0000         CONSTANT HEAD =           0.0000
               WELLS =           0.0000                 WELLS =           0.0000
     HEAD DEP BOUNDS =       89513.6016       HEAD DEP BOUNDS =         611.3374

            TOTAL IN =      115210.3125              TOTAL IN =        1059.5844

          OUT:                                     OUT:
          ----                                     ----
             STORAGE =           0.1866               STORAGE =           0.0000
       CONSTANT HEAD =           0.0000         CONSTANT HEAD =           0.0000
               WELLS =       26500.0000                 WELLS =         500.0000
     HEAD DEP BOUNDS =       88711.9766       HEAD DEP BOUNDS =         559.5861

           TOTAL OUT =      115212.1641             TOTAL OUT =        1059.5861

            IN - OUT =          -1.8516              IN - OUT =      -1.7090E-03

 PERCENT DISCREPANCY =           0.00     PERCENT DISCREPANCY =           0.00






          TIME SUMMARY AT END OF TIME STEP  53 IN STRESS PERIOD    3
                    SECONDS     MINUTES      HOURS       DAYS        YEARS
                    -----------------------------------------------------------
   TIME STEP LENGTH  86400.      1440.0      24.000      1.0000     2.73785E-03
 STRESS PERIOD TIME 4.57920E+06  76320.      1272.0      53.000     0.14511    
         TOTAL TIME 1.33056E+07 2.21760E+05  3696.0      154.00     0.42163    
1
 
 SOLVING FOR HEAD 

 OUTPUT CONTROL FOR STRESS PERIOD    3   TIME STEP  54
    SAVE HEAD FOR ALL LAYERS
    SAVE DRAWDOWN FOR ALL LAYERS
    SAVE BUDGET
    PRINT HEAD FOR ALL LAYERS
    PRINT BUDGET
 UBDSV1 SAVING "         STORAGE" ON UNIT  53 AT TIME STEP 54, STRESS PERIOD   3
 UBDSV2 SAVING "   CONSTANT HEAD" ON UNIT  53 AT TIME STEP 54, STRESS PERIOD   3
 UBDSV1 SAVING "FLOW RIGHT FACE " ON UNIT  53 AT TIME STEP 54, STRESS PERIOD   3
 UBDSV1 SAVING "FLOW FRONT FACE " ON UNIT  53 AT TIME STEP 54, STRESS PERIOD   3
1
              HEAD IN LAYER   1 AT END OF TIME STEP  54 IN STRESS PERIOD    3
  ---------------------------------------------------------------------------

            1           2           3           4           5           6           7           8           9          10
           11          12          13          14          15          16          17          18          19          20
 ........................................................................................................................
   1    9.990       9.495       8.994       8.488       7.975       7.457       6.934       6.408       5.883       5.360    
        4.842       4.325       3.809       3.289       2.764       2.230       1.688       1.137      0.5780      1.1399E-02
   2    9.990       9.487       8.978       8.460       7.934       7.398       6.855       6.309       5.767       5.238    
        4.725       4.224       3.728       3.228       2.720       2.201       1.669       1.126      0.5730      1.1300E-02
   3    9.990       9.472       8.946       8.405       7.847       7.269       6.672       6.065       5.466       4.906    
        4.419       3.973       3.538       3.093       2.628       2.141       1.632       1.105      0.5635      1.1112E-02
   4    9.989       9.455       8.906       8.334       7.728       7.076       6.368       5.602       4.805       4.080    
        3.746       3.495       3.219       2.889       2.501       2.064       1.587       1.080      0.5524      1.0894E-02
   5    9.989       9.446       8.885       8.292       7.649       6.926       6.075       5.011       3.562       1.352    
        2.479       2.881       2.910       2.727       2.415       2.017       1.562       1.067      0.5468      1.0784E-02
   6    9.989       9.455       8.907       8.335       7.729       7.077       6.369       5.603       4.806       4.081    
        3.747       3.496       3.220       2.889       2.501       2.064       1.587       1.081      0.5525      1.0896E-02
   7    9.990       9.473       8.946       8.407       7.849       7.271       6.675       6.068       5.469       4.909    
        4.422       3.976       3.541       3.095       2.630       2.142       1.633       1.106      0.5637      1.1117E-02
   8    9.990       9.488       8.980       8.464       7.939       7.405       6.863       6.319       5.778       5.248    
        4.735       4.234       3.736       3.235       2.725       2.205       1.672       1.128      0.5737      1.1315E-02
   9    9.990       9.498       9.000       8.498       7.989       7.475       6.957       6.435       5.912       5.391    
        4.871       4.352       3.832       3.308       2.778       2.240       1.695       1.141      0.5800      1.1438E-02
  10    9.990       9.502       9.009       8.512       8.010       7.504       6.993       6.479       5.961       5.442    
        4.920       4.396       3.869       3.337       2.799       2.255       1.705       1.147      0.5827      1.1493E-02

 HEAD WILL BE SAVED ON UNIT   51 AT END OF TIME STEP  54, STRESS PERIOD    3

 DRAWDOWN WILL BE SAVED ON UNIT   52 AT END OF TIME STEP  54, STRESS PERIOD    3
1
  VOLUMETRIC BUDGET FOR ENTIRE MODEL AT END OF TIME STEP 54 IN STRESS PERIOD   3
  ------------------------------------------------------------------------------

     CUMULATIVE VOLUMES      L**3       RATES FOR THIS TIME STEP      L**3/T
     ------------------                 ------------------------

           IN:                                      IN:
           ---                                      ---
             STORAGE =       26142.8926               STORAGE =         446.1797
       CONSTANT HEAD =           0.0000         CONSTANT HEAD =           0.0000
               WELLS =           0.0000                 WELLS =           0.0000
     HEAD DEP BOUNDS =       90126.1719       HEAD DEP BOUNDS =         612.5696

            TOTAL IN =      116269.0625              TOTAL IN =        1058.7493

          OUT:                                     OUT:
          ----                                     ----
             STORAGE =           0.1866               STORAGE =           0.0000
       CONSTANT HEAD =           0.0000         CONSTANT HEAD =           0.0000
               WELLS =       27000.0000                 WELLS =         500.0000
     HEAD DEP BOUNDS =       89270.7188       HEAD DEP BOUNDS =         558.7426

           TOTAL OUT =      116270.9062             TOTAL OUT =        1058.7426

            IN - OUT =          -1.8438              IN - OUT =       6.7139E-03

 PERCENT DISCREPANCY =           0.00     PERCENT DISCREPANCY =           0.00






          TIME SUMMARY AT END OF TIME STEP  54 IN STRESS PERIOD    3
                    SECONDS     MINUTES      HOURS       DAYS        YEARS
                    -----------------------------------------------------------
   TIME STEP LENGTH  86400.      1440.0      24.000      1.0000     2.73785E-03
 STRESS PERIOD TIME 4.66560E+06  77760.      1296.0      54.000     0.14784    
         TOTAL TIME 1.33920E+07 2.23200E+05  3720.0      155.00     0.42437    
1
 
 SOLVING FOR HEAD 

 OUTPUT CONTROL FOR STRESS PERIOD    3   TIME STEP  55
    SAVE HEAD FOR ALL LAYERS
    SAVE DRAWDOWN FOR ALL LAYERS
    SAVE BUDGET
    PRINT HEAD FOR ALL LAYERS
    PRINT BUDGET
 UBDSV1 SAVING "         STORAGE" ON UNIT  53 AT TIME STEP 55, STRESS PERIOD   3
 UBDSV2 SAVING "   CONSTANT HEAD" ON UNIT  53 AT TIME STEP 55, STRESS PERIOD   3
 UBDSV1 SAVING "FLOW RIGHT FACE " ON UNIT  53 AT TIME STEP 55, STRESS PERIOD   3
 UBDSV1 SAVING "FLOW FRONT FACE " ON UNIT  53 AT TIME STEP 55, STRESS PERIOD   3
1
              HEAD IN LAYER   1 AT END OF TIME STEP  55 IN STRESS PERIOD    3
  ---------------------------------------------------------------------------

            1           2           3           4           5           6           7           8           9          10
           11          12          13          14          15          16          17          18          19          20
 ........................................................................................................................
   1    9.990       9.494       8.993       8.486       7.972       7.453       6.930       6.404       5.878       5.355    
        4.837       4.321       3.805       3.286       2.761       2.228       1.686       1.136      0.5775      1.1388E-02
   2    9.990       9.486       8.976       8.458       7.930       7.393       6.850       6.303       5.761       5.231    
        4.718       4.218       3.722       3.224       2.716       2.198       1.667       1.125      0.5723      1.1286E-02
   3    9.990       9.471       8.943       8.401       7.842       7.263       6.664       6.056       5.456       4.896    
        4.409       3.964       3.530       3.086       2.623       2.137       1.629       1.103      0.5625      1.1092E-02
   4    9.989       9.453       8.903       8.330       7.722       7.068       6.358       5.591       4.792       4.067    
        3.734       3.483       3.209       2.879       2.493       2.058       1.583       1.078      0.5511      1.0868E-02
   5    9.989       9.444       8.881       8.287       7.642       6.916       6.064       4.998       3.548       1.337    
        2.465       2.868       2.898       2.717       2.406       2.011       1.557       1.064      0.5454      1.0755E-02
   6    9.989       9.453       8.903       8.330       7.722       7.068       6.359       5.592       4.793       4.069    
        3.735       3.484       3.210       2.880       2.494       2.058       1.583       1.078      0.5512      1.0870E-02
   7    9.990       9.471       8.944       8.403       7.844       7.265       6.667       6.059       5.460       4.900    
        4.413       3.967       3.533       3.088       2.624       2.138       1.630       1.104      0.5627      1.1097E-02
   8    9.990       9.487       8.979       8.462       7.936       7.401       6.858       6.313       5.772       5.242    
        4.729       4.228       3.731       3.231       2.722       2.202       1.670       1.127      0.5731      1.1302E-02
   9    9.990       9.497       8.999       8.496       7.987       7.473       6.954       6.432       5.909       5.387    
        4.868       4.349       3.829       3.305       2.776       2.239       1.694       1.141      0.5796      1.1431E-02
  10    9.990       9.502       9.009       8.511       8.009       7.502       6.991       6.477       5.959       5.440    
        4.918       4.394       3.867       3.335       2.798       2.254       1.704       1.147      0.5825      1.1488E-02

 HEAD WILL BE SAVED ON UNIT   51 AT END OF TIME STEP  55, STRESS PERIOD    3

 DRAWDOWN WILL BE SAVED ON UNIT   52 AT END OF TIME STEP  55, STRESS PERIOD    3
1
  VOLUMETRIC BUDGET FOR ENTIRE MODEL AT END OF TIME STEP 55 IN STRESS PERIOD   3
  ------------------------------------------------------------------------------

     CUMULATIVE VOLUMES      L**3       RATES FOR THIS TIME STEP      L**3/T
     ------------------                 ------------------------

           IN:                                      IN:
           ---                                      ---
             STORAGE =       26586.9746               STORAGE =         444.0816
       CONSTANT HEAD =           0.0000         CONSTANT HEAD =           0.0000
               WELLS =           0.0000                 WELLS =           0.0000
     HEAD DEP BOUNDS =       90739.9766       HEAD DEP BOUNDS =         613.8052

            TOTAL IN =      117326.9531              TOTAL IN =        1057.8868

          OUT:                                     OUT:
          ----                                     ----
             STORAGE =           0.1866               STORAGE =           0.0000
       CONSTANT HEAD =           0.0000         CONSTANT HEAD =           0.0000
               WELLS =       27500.0000                 WELLS =         500.0000
     HEAD DEP BOUNDS =       89828.6094       HEAD DEP BOUNDS =         557.8888

           TOTAL OUT =      117328.7969             TOTAL OUT =        1057.8888

            IN - OUT =          -1.8438              IN - OUT =      -1.9531E-03

 PERCENT DISCREPANCY =           0.00     PERCENT DISCREPANCY =           0.00






          TIME SUMMARY AT END OF TIME STEP  55 IN STRESS PERIOD    3
                    SECONDS     MINUTES      HOURS       DAYS        YEARS
                    -----------------------------------------------------------
   TIME STEP LENGTH  86400.      1440.0      24.000      1.0000     2.73785E-03
 STRESS PERIOD TIME 4.75200E+06  79200.      1320.0      55.000     0.15058    
         TOTAL TIME 1.34784E+07 2.24640E+05  3744.0      156.00     0.42710    
1
 
 SOLVING FOR HEAD 

 OUTPUT CONTROL FOR STRESS PERIOD    3   TIME STEP  56
    SAVE HEAD FOR ALL LAYERS
    SAVE DRAWDOWN FOR ALL LAYERS
    SAVE BUDGET
    PRINT HEAD FOR ALL LAYERS
    PRINT BUDGET
 UBDSV1 SAVING "         STORAGE" ON UNIT  53 AT TIME STEP 56, STRESS PERIOD   3
 UBDSV2 SAVING "   CONSTANT HEAD" ON UNIT  53 AT TIME STEP 56, STRESS PERIOD   3
 UBDSV1 SAVING "FLOW RIGHT FACE " ON UNIT  53 AT TIME STEP 56, STRESS PERIOD   3
 UBDSV1 SAVING "FLOW FRONT FACE " ON UNIT  53 AT TIME STEP 56, STRESS PERIOD   3
1
              HEAD IN LAYER   1 AT END OF TIME STEP  56 IN STRESS PERIOD    3
  ---------------------------------------------------------------------------

            1           2           3           4           5           6           7           8           9          10
           11          12          13          14          15          16          17          18          19          20
 ........................................................................................................................
   1    9.990       9.493       8.991       8.483       7.970       7.450       6.926       6.399       5.873       5.350    
        4.832       4.316       3.801       3.282       2.758       2.226       1.685       1.135      0.5769      1.1378E-02
   2    9.990       9.485       8.974       8.455       7.926       7.389       6.844       6.297       5.754       5.224    
        4.712       4.212       3.717       3.219       2.712       2.195       1.665       1.123      0.5716      1.1272E-02
   3    9.990       9.470       8.941       8.398       7.837       7.256       6.657       6.047       5.447       4.887    
        4.400       3.955       3.522       3.079       2.617       2.132       1.626       1.101      0.5614      1.1071E-02
   4    9.989       9.452       8.900       8.325       7.715       7.059       6.348       5.580       4.780       4.055    
        3.721       3.472       3.198       2.870       2.486       2.052       1.579       1.075      0.5497      1.0841E-02
   5    9.989       9.442       8.878       8.282       7.634       6.907       6.053       4.986       3.534       1.323    
        2.451       2.855       2.887       2.708       2.398       2.004       1.553       1.061      0.5439      1.0726E-02
   6    9.989       9.452       8.900       8.325       7.716       7.060       6.349       5.581       4.781       4.056    
        3.722       3.473       3.199       2.871       2.486       2.053       1.579       1.075      0.5498      1.0843E-02
   7    9.990       9.470       8.942       8.399       7.839       7.259       6.660       6.051       5.451       4.891    
        4.403       3.959       3.525       3.082       2.619       2.134       1.627       1.102      0.5617      1.1077E-02
   8    9.990       9.487       8.977       8.459       7.932       7.397       6.853       6.308       5.766       5.236    
        4.723       4.222       3.726       3.226       2.718       2.199       1.668       1.125      0.5724      1.1289E-02
   9    9.990       9.497       8.998       8.495       7.985       7.470       6.951       6.428       5.905       5.384    
        4.864       4.346       3.826       3.303       2.774       2.237       1.692       1.140      0.5792      1.1423E-02
  10    9.990       9.501       9.008       8.510       8.008       7.500       6.989       6.474       5.957       5.437    
        4.916       4.392       3.865       3.333       2.796       2.253       1.703       1.146      0.5823      1.1483E-02

 HEAD WILL BE SAVED ON UNIT   51 AT END OF TIME STEP  56, STRESS PERIOD    3

 DRAWDOWN WILL BE SAVED ON UNIT   52 AT END OF TIME STEP  56, STRESS PERIOD    3
1
  VOLUMETRIC BUDGET FOR ENTIRE MODEL AT END OF TIME STEP 56 IN STRESS PERIOD   3
  ------------------------------------------------------------------------------

     CUMULATIVE VOLUMES      L**3       RATES FOR THIS TIME STEP      L**3/T
     ------------------                 ------------------------

           IN:                                      IN:
           ---                                      ---
             STORAGE =       27028.9551               STORAGE =         441.9813
       CONSTANT HEAD =           0.0000         CONSTANT HEAD =           0.0000
               WELLS =           0.0000                 WELLS =           0.0000
     HEAD DEP BOUNDS =       91355.0234       HEAD DEP BOUNDS =         615.0470

            TOTAL IN =      118383.9766              TOTAL IN =        1057.0283

          OUT:                                     OUT:
          ----                                     ----
             STORAGE =           0.1866               STORAGE =           0.0000
       CONSTANT HEAD =           0.0000         CONSTANT HEAD =           0.0000
               WELLS =       28000.0000                 WELLS =         500.0000
     HEAD DEP BOUNDS =       90385.6328       HEAD DEP BOUNDS =         557.0247

           TOTAL OUT =      118385.8203             TOTAL OUT =        1057.0247

            IN - OUT =          -1.8438              IN - OUT =       3.6621E-03

 PERCENT DISCREPANCY =           0.00     PERCENT DISCREPANCY =           0.00






          TIME SUMMARY AT END OF TIME STEP  56 IN STRESS PERIOD    3
                    SECONDS     MINUTES      HOURS       DAYS        YEARS
                    -----------------------------------------------------------
   TIME STEP LENGTH  86400.      1440.0      24.000      1.0000     2.73785E-03
 STRESS PERIOD TIME 4.83840E+06  80640.      1344.0      56.000     0.15332    
         TOTAL TIME 1.35648E+07 2.26080E+05  3768.0      157.00     0.42984    
1
 
 SOLVING FOR HEAD 

 OUTPUT CONTROL FOR STRESS PERIOD    3   TIME STEP  57
    SAVE HEAD FOR ALL LAYERS
    SAVE DRAWDOWN FOR ALL LAYERS
    SAVE BUDGET
    PRINT HEAD FOR ALL LAYERS
    PRINT BUDGET
 UBDSV1 SAVING "         STORAGE" ON UNIT  53 AT TIME STEP 57, STRESS PERIOD   3
 UBDSV2 SAVING "   CONSTANT HEAD" ON UNIT  53 AT TIME STEP 57, STRESS PERIOD   3
 UBDSV1 SAVING "FLOW RIGHT FACE " ON UNIT  53 AT TIME STEP 57, STRESS PERIOD   3
 UBDSV1 SAVING "FLOW FRONT FACE " ON UNIT  53 AT TIME STEP 57, STRESS PERIOD   3
1
              HEAD IN LAYER   1 AT END OF TIME STEP  57 IN STRESS PERIOD    3
  ---------------------------------------------------------------------------

            1           2           3           4           5           6           7           8           9          10
           11          12          13          14          15          16          17          18          19          20
 ........................................................................................................................
   1    9.990       9.493       8.990       8.481       7.967       7.446       6.921       6.395       5.868       5.345    
        4.827       4.312       3.797       3.279       2.755       2.223       1.683       1.134      0.5764      1.1367E-02
   2    9.990       9.484       8.972       8.452       7.923       7.384       6.839       6.291       5.748       5.218    
        4.705       4.206       3.711       3.214       2.708       2.192       1.663       1.122      0.5708      1.1257E-02
   3    9.990       9.468       8.938       8.394       7.832       7.250       6.649       6.039       5.438       4.877    
        4.390       3.946       3.514       3.072       2.611       2.128       1.623       1.099      0.5604      1.1051E-02
   4    9.989       9.450       8.897       8.320       7.708       7.051       6.338       5.569       4.768       4.043    
        3.709       3.460       3.188       2.862       2.479       2.046       1.574       1.072      0.5484      1.0815E-02
   5    9.989       9.440       8.874       8.276       7.627       6.898       6.043       4.974       3.521       1.308    
        2.437       2.843       2.876       2.698       2.390       1.998       1.548       1.058      0.5424      1.0697E-02
   6    9.989       9.450       8.897       8.320       7.709       7.052       6.339       5.570       4.769       4.044    
        3.710       3.461       3.189       2.862       2.479       2.047       1.575       1.072      0.5485      1.0817E-02
   7    9.990       9.469       8.939       8.395       7.834       7.252       6.653       6.043       5.442       4.881    
        4.394       3.950       3.517       3.075       2.613       2.129       1.624       1.100      0.5607      1.1057E-02
   8    9.990       9.486       8.975       8.457       7.929       7.392       6.849       6.302       5.760       5.230    
        4.717       4.217       3.721       3.222       2.715       2.196       1.666       1.124      0.5718      1.1276E-02
   9    9.990       9.496       8.997       8.493       7.983       7.468       6.948       6.425       5.902       5.380    
        4.860       4.342       3.823       3.300       2.771       2.235       1.691       1.139      0.5788      1.1415E-02
  10    9.990       9.501       9.007       8.509       8.006       7.499       6.987       6.472       5.955       5.435    
        4.914       4.390       3.863       3.332       2.795       2.252       1.702       1.146      0.5820      1.1478E-02

 HEAD WILL BE SAVED ON UNIT   51 AT END OF TIME STEP  57, STRESS PERIOD    3

 DRAWDOWN WILL BE SAVED ON UNIT   52 AT END OF TIME STEP  57, STRESS PERIOD    3
1
  VOLUMETRIC BUDGET FOR ENTIRE MODEL AT END OF TIME STEP 57 IN STRESS PERIOD   3
  ------------------------------------------------------------------------------

     CUMULATIVE VOLUMES      L**3       RATES FOR THIS TIME STEP      L**3/T
     ------------------                 ------------------------

           IN:                                      IN:
           ---                                      ---
             STORAGE =       27468.8184               STORAGE =         439.8636
       CONSTANT HEAD =           0.0000         CONSTANT HEAD =           0.0000
               WELLS =           0.0000                 WELLS =           0.0000
     HEAD DEP BOUNDS =       91971.3125       HEAD DEP BOUNDS =         616.2875

            TOTAL IN =      119440.1328              TOTAL IN =        1056.1510

          OUT:                                     OUT:
          ----                                     ----
             STORAGE =           0.1866               STORAGE =           0.0000
       CONSTANT HEAD =           0.0000         CONSTANT HEAD =           0.0000
               WELLS =       28500.0000                 WELLS =         500.0000
     HEAD DEP BOUNDS =       90941.7812       HEAD DEP BOUNDS =         556.1508

           TOTAL OUT =      119441.9688             TOTAL OUT =        1056.1508

            IN - OUT =          -1.8359              IN - OUT =       2.4414E-04

 PERCENT DISCREPANCY =           0.00     PERCENT DISCREPANCY =           0.00






          TIME SUMMARY AT END OF TIME STEP  57 IN STRESS PERIOD    3
                    SECONDS     MINUTES      HOURS       DAYS        YEARS
                    -----------------------------------------------------------
   TIME STEP LENGTH  86400.      1440.0      24.000      1.0000     2.73785E-03
 STRESS PERIOD TIME 4.92480E+06  82080.      1368.0      57.000     0.15606    
         TOTAL TIME 1.36512E+07 2.27520E+05  3792.0      158.00     0.43258    
1
 
 SOLVING FOR HEAD 

 OUTPUT CONTROL FOR STRESS PERIOD    3   TIME STEP  58
    SAVE HEAD FOR ALL LAYERS
    SAVE DRAWDOWN FOR ALL LAYERS
    SAVE BUDGET
    PRINT HEAD FOR ALL LAYERS
    PRINT BUDGET
 UBDSV1 SAVING "         STORAGE" ON UNIT  53 AT TIME STEP 58, STRESS PERIOD   3
 UBDSV2 SAVING "   CONSTANT HEAD" ON UNIT  53 AT TIME STEP 58, STRESS PERIOD   3
 UBDSV1 SAVING "FLOW RIGHT FACE " ON UNIT  53 AT TIME STEP 58, STRESS PERIOD   3
 UBDSV1 SAVING "FLOW FRONT FACE " ON UNIT  53 AT TIME STEP 58, STRESS PERIOD   3
1
              HEAD IN LAYER   1 AT END OF TIME STEP  58 IN STRESS PERIOD    3
  ---------------------------------------------------------------------------

            1           2           3           4           5           6           7           8           9          10
           11          12          13          14          15          16          17          18          19          20
 ........................................................................................................................
   1    9.990       9.492       8.988       8.479       7.964       7.443       6.917       6.390       5.863       5.340    
        4.822       4.307       3.792       3.275       2.752       2.221       1.681       1.133      0.5758      1.1356E-02
   2    9.990       9.483       8.970       8.449       7.919       7.380       6.833       6.285       5.741       5.211    
        4.699       4.200       3.706       3.209       2.704       2.188       1.660       1.120      0.5701      1.1242E-02
   3    9.990       9.467       8.936       8.390       7.827       7.243       6.642       6.030       5.429       4.868    
        4.381       3.938       3.506       3.065       2.606       2.123       1.620       1.097      0.5593      1.1030E-02
   4    9.989       9.448       8.894       8.315       7.702       7.043       6.329       5.558       4.757       4.030    
        3.697       3.449       3.178       2.853       2.471       2.041       1.570       1.070      0.5471      1.0788E-02
   5    9.989       9.439       8.871       8.271       7.620       6.890       6.032       4.962       3.508       1.294    
        2.424       2.830       2.864       2.688       2.382       1.992       1.544       1.055      0.5410      1.0668E-02
   6    9.989       9.449       8.894       8.316       7.703       7.044       6.330       5.559       4.758       4.032    
        3.698       3.450       3.179       2.854       2.472       2.041       1.571       1.070      0.5472      1.0790E-02
   7    9.990       9.468       8.937       8.392       7.829       7.246       6.645       6.034       5.433       4.872    
        4.385       3.941       3.509       3.068       2.608       2.125       1.621       1.098      0.5597      1.1037E-02
   8    9.990       9.485       8.974       8.454       7.926       7.388       6.844       6.297       5.754       5.224    
        4.711       4.211       3.716       3.217       2.711       2.193       1.664       1.122      0.5711      1.1262E-02
   9    9.990       9.496       8.996       8.492       7.981       7.465       6.945       6.422       5.898       5.376    
        4.857       4.339       3.820       3.297       2.769       2.234       1.690       1.138      0.5784      1.1407E-02
  10    9.990       9.501       9.007       8.508       8.005       7.497       6.985       6.470       5.952       5.433    
        4.911       4.388       3.861       3.330       2.794       2.251       1.702       1.145      0.5817      1.1473E-02

 HEAD WILL BE SAVED ON UNIT   51 AT END OF TIME STEP  58, STRESS PERIOD    3

 DRAWDOWN WILL BE SAVED ON UNIT   52 AT END OF TIME STEP  58, STRESS PERIOD    3
1
  VOLUMETRIC BUDGET FOR ENTIRE MODEL AT END OF TIME STEP 58 IN STRESS PERIOD   3
  ------------------------------------------------------------------------------

     CUMULATIVE VOLUMES      L**3       RATES FOR THIS TIME STEP      L**3/T
     ------------------                 ------------------------

           IN:                                      IN:
           ---                                      ---
             STORAGE =       27906.5547               STORAGE =         437.7364
       CONSTANT HEAD =           0.0000         CONSTANT HEAD =           0.0000
               WELLS =           0.0000                 WELLS =           0.0000
     HEAD DEP BOUNDS =       92588.8438       HEAD DEP BOUNDS =         617.5330

            TOTAL IN =      120495.3984              TOTAL IN =        1055.2694

          OUT:                                     OUT:
          ----                                     ----
             STORAGE =           0.1866               STORAGE =           0.0000
       CONSTANT HEAD =           0.0000         CONSTANT HEAD =           0.0000
               WELLS =       29000.0000                 WELLS =         500.0000
     HEAD DEP BOUNDS =       91497.0469       HEAD DEP BOUNDS =         555.2664

           TOTAL OUT =      120497.2344             TOTAL OUT =        1055.2664

            IN - OUT =          -1.8359              IN - OUT =       3.0518E-03

 PERCENT DISCREPANCY =           0.00     PERCENT DISCREPANCY =           0.00






          TIME SUMMARY AT END OF TIME STEP  58 IN STRESS PERIOD    3
                    SECONDS     MINUTES      HOURS       DAYS        YEARS
                    -----------------------------------------------------------
   TIME STEP LENGTH  86400.      1440.0      24.000      1.0000     2.73785E-03
 STRESS PERIOD TIME 5.01120E+06  83520.      1392.0      58.000     0.15880    
         TOTAL TIME 1.37376E+07 2.28960E+05  3816.0      159.00     0.43532    
1
 
 SOLVING FOR HEAD 

 OUTPUT CONTROL FOR STRESS PERIOD    3   TIME STEP  59
    SAVE HEAD FOR ALL LAYERS
    SAVE DRAWDOWN FOR ALL LAYERS
    SAVE BUDGET
    PRINT HEAD FOR ALL LAYERS
    PRINT BUDGET
 UBDSV1 SAVING "         STORAGE" ON UNIT  53 AT TIME STEP 59, STRESS PERIOD   3
 UBDSV2 SAVING "   CONSTANT HEAD" ON UNIT  53 AT TIME STEP 59, STRESS PERIOD   3
 UBDSV1 SAVING "FLOW RIGHT FACE " ON UNIT  53 AT TIME STEP 59, STRESS PERIOD   3
 UBDSV1 SAVING "FLOW FRONT FACE " ON UNIT  53 AT TIME STEP 59, STRESS PERIOD   3
1
              HEAD IN LAYER   1 AT END OF TIME STEP  59 IN STRESS PERIOD    3
  ---------------------------------------------------------------------------

            1           2           3           4           5           6           7           8           9          10
           11          12          13          14          15          16          17          18          19          20
 ........................................................................................................................
   1    9.990       9.491       8.987       8.477       7.961       7.439       6.913       6.385       5.858       5.335    
        4.817       4.302       3.788       3.271       2.749       2.218       1.679       1.132      0.5753      1.1345E-02
   2    9.990       9.482       8.969       8.447       7.915       7.375       6.828       6.279       5.735       5.204    
        4.692       4.193       3.700       3.204       2.700       2.185       1.658       1.119      0.5693      1.1227E-02
   3    9.990       9.466       8.933       8.386       7.821       7.237       6.634       6.022       5.419       4.859    
        4.372       3.929       3.498       3.059       2.600       2.119       1.616       1.095      0.5582      1.1009E-02
   4    9.989       9.447       8.890       8.310       7.696       7.035       6.319       5.547       4.745       4.018    
        3.685       3.438       3.168       2.844       2.464       2.035       1.566       1.067      0.5457      1.0761E-02
   5    9.989       9.437       8.867       8.266       7.613       6.881       6.022       4.950       3.495       1.281    
        2.410       2.818       2.853       2.679       2.375       1.986       1.539       1.053      0.5395      1.0639E-02
   6    9.989       9.447       8.891       8.311       7.696       7.036       6.321       5.548       4.746       4.020    
        3.687       3.439       3.169       2.845       2.465       2.036       1.567       1.067      0.5458      1.0764E-02
   7    9.990       9.467       8.934       8.388       7.824       7.240       6.638       6.026       5.424       4.863    
        4.376       3.933       3.502       3.062       2.602       2.121       1.618       1.096      0.5586      1.1016E-02
   8    9.990       9.484       8.972       8.452       7.922       7.384       6.839       6.291       5.748       5.218    
        4.705       4.205       3.711       3.213       2.707       2.190       1.662       1.121      0.5704      1.1249E-02
   9    9.990       9.495       8.995       8.490       7.979       7.463       6.942       6.418       5.895       5.373    
        4.853       4.335       3.817       3.295       2.767       2.232       1.689       1.137      0.5780      1.1399E-02
  10    9.990       9.500       9.006       8.507       8.003       7.495       6.983       6.468       5.950       5.430    
        4.909       4.385       3.859       3.328       2.792       2.250       1.701       1.145      0.5815      1.1467E-02

 HEAD WILL BE SAVED ON UNIT   51 AT END OF TIME STEP  59, STRESS PERIOD    3

 DRAWDOWN WILL BE SAVED ON UNIT   52 AT END OF TIME STEP  59, STRESS PERIOD    3
1
  VOLUMETRIC BUDGET FOR ENTIRE MODEL AT END OF TIME STEP 59 IN STRESS PERIOD   3
  ------------------------------------------------------------------------------

     CUMULATIVE VOLUMES      L**3       RATES FOR THIS TIME STEP      L**3/T
     ------------------                 ------------------------

           IN:                                      IN:
           ---                                      ---
             STORAGE =       28342.1523               STORAGE =         435.5981
       CONSTANT HEAD =           0.0000         CONSTANT HEAD =           0.0000
               WELLS =           0.0000                 WELLS =           0.0000
     HEAD DEP BOUNDS =       93207.6172       HEAD DEP BOUNDS =         618.7762

            TOTAL IN =      121549.7656              TOTAL IN =        1054.3743

          OUT:                                     OUT:
          ----                                     ----
             STORAGE =           0.1866               STORAGE =           0.0000
       CONSTANT HEAD =           0.0000         CONSTANT HEAD =           0.0000
               WELLS =       29500.0000                 WELLS =         500.0000
     HEAD DEP BOUNDS =       92051.4219       HEAD DEP BOUNDS =         554.3759

           TOTAL OUT =      121551.6094             TOTAL OUT =        1054.3759

            IN - OUT =          -1.8438              IN - OUT =      -1.5869E-03

 PERCENT DISCREPANCY =           0.00     PERCENT DISCREPANCY =           0.00






          TIME SUMMARY AT END OF TIME STEP  59 IN STRESS PERIOD    3
                    SECONDS     MINUTES      HOURS       DAYS        YEARS
                    -----------------------------------------------------------
   TIME STEP LENGTH  86400.      1440.0      24.000      1.0000     2.73785E-03
 STRESS PERIOD TIME 5.09760E+06  84960.      1416.0      59.000     0.16153    
         TOTAL TIME 1.38240E+07 2.30400E+05  3840.0      160.00     0.43806    
1
 
 SOLVING FOR HEAD 

 OUTPUT CONTROL FOR STRESS PERIOD    3   TIME STEP  60
    SAVE HEAD FOR ALL LAYERS
    SAVE DRAWDOWN FOR ALL LAYERS
    SAVE BUDGET
    PRINT HEAD FOR ALL LAYERS
    PRINT BUDGET
 UBDSV1 SAVING "         STORAGE" ON UNIT  53 AT TIME STEP 60, STRESS PERIOD   3
 UBDSV2 SAVING "   CONSTANT HEAD" ON UNIT  53 AT TIME STEP 60, STRESS PERIOD   3
 UBDSV1 SAVING "FLOW RIGHT FACE " ON UNIT  53 AT TIME STEP 60, STRESS PERIOD   3
 UBDSV1 SAVING "FLOW FRONT FACE " ON UNIT  53 AT TIME STEP 60, STRESS PERIOD   3
1
              HEAD IN LAYER   1 AT END OF TIME STEP  60 IN STRESS PERIOD    3
  ---------------------------------------------------------------------------

            1           2           3           4           5           6           7           8           9          10
           11          12          13          14          15          16          17          18          19          20
 ........................................................................................................................
   1    9.990       9.490       8.986       8.475       7.958       7.436       6.909       6.381       5.853       5.330    
        4.812       4.298       3.784       3.268       2.746       2.216       1.678       1.130      0.5747      1.1333E-02
   2    9.990       9.481       8.967       8.444       7.912       7.370       6.823       6.273       5.728       5.198    
        4.685       4.187       3.694       3.199       2.696       2.182       1.656       1.117      0.5685      1.1212E-02
   3    9.990       9.465       8.930       8.382       7.816       7.231       6.627       6.014       5.410       4.849    
        4.363       3.920       3.490       3.052       2.594       2.114       1.613       1.093      0.5572      1.0987E-02
   4    9.989       9.445       8.887       8.306       7.689       7.027       6.310       5.537       4.734       4.007    
        3.674       3.427       3.158       2.835       2.457       2.029       1.562       1.064      0.5443      1.0734E-02
   5    9.989       9.435       8.864       8.261       7.606       6.872       6.012       4.939       3.482       1.267    
        2.397       2.806       2.843       2.669       2.367       1.980       1.535       1.050      0.5380      1.0610E-02
   6    9.989       9.445       8.888       8.306       7.690       7.028       6.311       5.538       4.735       4.008    
        3.675       3.428       3.159       2.836       2.458       2.030       1.562       1.064      0.5445      1.0737E-02
   7    9.990       9.465       8.932       8.384       7.819       7.234       6.631       6.018       5.415       4.854    
        4.367       3.925       3.494       3.055       2.597       2.116       1.614       1.093      0.5576      1.0995E-02
   8    9.990       9.483       8.970       8.449       7.919       7.380       6.834       6.286       5.742       5.212    
        4.699       4.200       3.706       3.209       2.704       2.188       1.659       1.120      0.5697      1.1235E-02
   9    9.990       9.495       8.994       8.489       7.977       7.460       6.939       6.415       5.891       5.369    
        4.850       4.332       3.814       3.292       2.765       2.230       1.687       1.136      0.5776      1.1390E-02
  10    9.990       9.500       9.005       8.506       8.002       7.493       6.981       6.465       5.947       5.428    
        4.906       4.383       3.857       3.326       2.791       2.249       1.700       1.144      0.5812      1.1461E-02

 HEAD WILL BE SAVED ON UNIT   51 AT END OF TIME STEP  60, STRESS PERIOD    3

 DRAWDOWN WILL BE SAVED ON UNIT   52 AT END OF TIME STEP  60, STRESS PERIOD    3
1
  VOLUMETRIC BUDGET FOR ENTIRE MODEL AT END OF TIME STEP 60 IN STRESS PERIOD   3
  ------------------------------------------------------------------------------

     CUMULATIVE VOLUMES      L**3       RATES FOR THIS TIME STEP      L**3/T
     ------------------                 ------------------------

           IN:                                      IN:
           ---                                      ---
             STORAGE =       28775.6055               STORAGE =         433.4536
       CONSTANT HEAD =           0.0000         CONSTANT HEAD =           0.0000
               WELLS =           0.0000                 WELLS =           0.0000
     HEAD DEP BOUNDS =       93827.6406       HEAD DEP BOUNDS =         620.0234

            TOTAL IN =      122603.2500              TOTAL IN =        1053.4771

          OUT:                                     OUT:
          ----                                     ----
             STORAGE =           0.1866               STORAGE =           0.0000
       CONSTANT HEAD =           0.0000         CONSTANT HEAD =           0.0000
               WELLS =       30000.0000                 WELLS =         500.0000
     HEAD DEP BOUNDS =       92604.8984       HEAD DEP BOUNDS =         553.4763

           TOTAL OUT =      122605.0859             TOTAL OUT =        1053.4763

            IN - OUT =          -1.8359              IN - OUT =       7.3242E-04

 PERCENT DISCREPANCY =           0.00     PERCENT DISCREPANCY =           0.00






          TIME SUMMARY AT END OF TIME STEP  60 IN STRESS PERIOD    3
                    SECONDS     MINUTES      HOURS       DAYS        YEARS
                    -----------------------------------------------------------
   TIME STEP LENGTH  86400.      1440.0      24.000      1.0000     2.73785E-03
 STRESS PERIOD TIME 5.18400E+06  86400.      1440.0      60.000     0.16427    
         TOTAL TIME 1.39104E+07 2.31840E+05  3864.0      161.00     0.44079    
1
 
 SOLVING FOR HEAD 

 OUTPUT CONTROL FOR STRESS PERIOD    3   TIME STEP  61
    SAVE HEAD FOR ALL LAYERS
    SAVE DRAWDOWN FOR ALL LAYERS
    SAVE BUDGET
    PRINT HEAD FOR ALL LAYERS
    PRINT BUDGET
 UBDSV1 SAVING "         STORAGE" ON UNIT  53 AT TIME STEP 61, STRESS PERIOD   3
 UBDSV2 SAVING "   CONSTANT HEAD" ON UNIT  53 AT TIME STEP 61, STRESS PERIOD   3
 UBDSV1 SAVING "FLOW RIGHT FACE " ON UNIT  53 AT TIME STEP 61, STRESS PERIOD   3
 UBDSV1 SAVING "FLOW FRONT FACE " ON UNIT  53 AT TIME STEP 61, STRESS PERIOD   3
1
              HEAD IN LAYER   1 AT END OF TIME STEP  61 IN STRESS PERIOD    3
  ---------------------------------------------------------------------------

            1           2           3           4           5           6           7           8           9          10
           11          12          13          14          15          16          17          18          19          20
 ........................................................................................................................
   1    9.990       9.490       8.984       8.473       7.955       7.432       6.905       6.376       5.848       5.325    
        4.807       4.293       3.780       3.264       2.742       2.214       1.676       1.129      0.5741      1.1321E-02
   2    9.990       9.481       8.965       8.441       7.908       7.366       6.817       6.267       5.722       5.191    
        4.679       4.181       3.689       3.194       2.692       2.179       1.653       1.116      0.5678      1.1196E-02
   3    9.990       9.463       8.928       8.379       7.811       7.224       6.619       6.005       5.402       4.840    
        4.354       3.912       3.482       3.045       2.589       2.110       1.610       1.090      0.5561      1.0966E-02
   4    9.989       9.444       8.884       8.301       7.683       7.019       6.301       5.526       4.722       3.995    
        3.662       3.416       3.148       2.827       2.450       2.024       1.558       1.061      0.5430      1.0707E-02
   5    9.989       9.434       8.861       8.256       7.600       6.864       6.002       4.927       3.470       1.254    
        2.385       2.794       2.832       2.660       2.359       1.974       1.530       1.047      0.5365      1.0581E-02
   6    9.989       9.444       8.885       8.301       7.684       7.021       6.302       5.528       4.724       3.996    
        3.664       3.417       3.149       2.828       2.451       2.024       1.558       1.062      0.5431      1.0710E-02
   7    9.990       9.464       8.929       8.381       7.814       7.228       6.624       6.010       5.407       4.845    
        4.359       3.916       3.486       3.048       2.591       2.112       1.611       1.091      0.5565      1.0975E-02
   8    9.990       9.482       8.969       8.447       7.916       7.376       6.829       6.280       5.737       5.206    
        4.693       4.194       3.700       3.204       2.700       2.185       1.657       1.118      0.5690      1.1221E-02
   9    9.990       9.494       8.993       8.487       7.975       7.457       6.936       6.412       5.887       5.365    
        4.846       4.328       3.810       3.289       2.762       2.228       1.686       1.136      0.5771      1.1382E-02
  10    9.990       9.499       9.004       8.505       8.000       7.492       6.979       6.463       5.945       5.425    
        4.904       4.381       3.855       3.324       2.789       2.247       1.699       1.143      0.5809      1.1456E-02

 HEAD WILL BE SAVED ON UNIT   51 AT END OF TIME STEP  61, STRESS PERIOD    3

 DRAWDOWN WILL BE SAVED ON UNIT   52 AT END OF TIME STEP  61, STRESS PERIOD    3
1
  VOLUMETRIC BUDGET FOR ENTIRE MODEL AT END OF TIME STEP 61 IN STRESS PERIOD   3
  ------------------------------------------------------------------------------

     CUMULATIVE VOLUMES      L**3       RATES FOR THIS TIME STEP      L**3/T
     ------------------                 ------------------------

           IN:                                      IN:
           ---                                      ---
             STORAGE =       29206.9082               STORAGE =         431.3024
       CONSTANT HEAD =           0.0000         CONSTANT HEAD =           0.0000
               WELLS =           0.0000                 WELLS =           0.0000
     HEAD DEP BOUNDS =       94448.9141       HEAD DEP BOUNDS =         621.2707

            TOTAL IN =      123655.8203              TOTAL IN =        1052.5731

          OUT:                                     OUT:
          ----                                     ----
             STORAGE =           0.1866               STORAGE =           0.0000
       CONSTANT HEAD =           0.0000         CONSTANT HEAD =           0.0000
               WELLS =       30500.0000                 WELLS =         500.0000
     HEAD DEP BOUNDS =       93157.4688       HEAD DEP BOUNDS =         552.5693

           TOTAL OUT =      123657.6562             TOTAL OUT =        1052.5693

            IN - OUT =          -1.8359              IN - OUT =       3.7842E-03

 PERCENT DISCREPANCY =           0.00     PERCENT DISCREPANCY =           0.00






          TIME SUMMARY AT END OF TIME STEP  61 IN STRESS PERIOD    3
                    SECONDS     MINUTES      HOURS       DAYS        YEARS
                    -----------------------------------------------------------
   TIME STEP LENGTH  86400.      1440.0      24.000      1.0000     2.73785E-03
 STRESS PERIOD TIME 5.27040E+06  87840.      1464.0      61.000     0.16701    
         TOTAL TIME 1.39968E+07 2.33280E+05  3888.0      162.00     0.44353    
1
 
 SOLVING FOR HEAD 

 OUTPUT CONTROL FOR STRESS PERIOD    3   TIME STEP  62
    SAVE HEAD FOR ALL LAYERS
    SAVE DRAWDOWN FOR ALL LAYERS
    SAVE BUDGET
    PRINT HEAD FOR ALL LAYERS
    PRINT BUDGET
 UBDSV1 SAVING "         STORAGE" ON UNIT  53 AT TIME STEP 62, STRESS PERIOD   3
 UBDSV2 SAVING "   CONSTANT HEAD" ON UNIT  53 AT TIME STEP 62, STRESS PERIOD   3
 UBDSV1 SAVING "FLOW RIGHT FACE " ON UNIT  53 AT TIME STEP 62, STRESS PERIOD   3
 UBDSV1 SAVING "FLOW FRONT FACE " ON UNIT  53 AT TIME STEP 62, STRESS PERIOD   3
1
              HEAD IN LAYER   1 AT END OF TIME STEP  62 IN STRESS PERIOD    3
  ---------------------------------------------------------------------------

            1           2           3           4           5           6           7           8           9          10
           11          12          13          14          15          16          17          18          19          20
 ........................................................................................................................
   1    9.990       9.489       8.983       8.470       7.952       7.428       6.900       6.371       5.843       5.320    
        4.802       4.288       3.775       3.260       2.739       2.211       1.674       1.128      0.5734      1.1309E-02
   2    9.990       9.480       8.963       8.438       7.904       7.361       6.812       6.261       5.715       5.184    
        4.672       4.175       3.683       3.189       2.688       2.176       1.651       1.114      0.5670      1.1180E-02
   3    9.990       9.462       8.925       8.375       7.806       7.218       6.612       5.997       5.393       4.831    
        4.345       3.903       3.475       3.038       2.583       2.106       1.606       1.088      0.5550      1.0944E-02
   4    9.989       9.442       8.881       8.296       7.677       7.012       6.292       5.516       4.711       3.983    
        3.651       3.405       3.138       2.818       2.443       2.018       1.554       1.059      0.5416      1.0680E-02
   5    9.989       9.432       8.857       8.251       7.593       6.856       5.992       4.916       3.458       1.241    
        2.372       2.782       2.821       2.651       2.351       1.967       1.526       1.044      0.5351      1.0552E-02
   6    9.989       9.442       8.882       8.297       7.678       7.013       6.293       5.518       4.713       3.985    
        3.652       3.407       3.139       2.819       2.444       2.019       1.554       1.059      0.5418      1.0683E-02
   7    9.990       9.463       8.927       8.377       7.809       7.222       6.617       6.002       5.398       4.837    
        4.350       3.908       3.479       3.042       2.586       2.108       1.608       1.089      0.5555      1.0954E-02
   8    9.990       9.482       8.967       8.444       7.912       7.372       6.824       6.275       5.731       5.200    
        4.687       4.189       3.695       3.200       2.696       2.182       1.655       1.117      0.5683      1.1207E-02
   9    9.990       9.494       8.992       8.485       7.973       7.455       6.933       6.408       5.884       5.361    
        4.842       4.325       3.807       3.286       2.760       2.226       1.685       1.135      0.5767      1.1373E-02
  10    9.990       9.499       9.004       8.504       7.999       7.490       6.977       6.461       5.942       5.422    
        4.901       4.378       3.852       3.323       2.787       2.246       1.698       1.143      0.5806      1.1449E-02

 HEAD WILL BE SAVED ON UNIT   51 AT END OF TIME STEP  62, STRESS PERIOD    3

 DRAWDOWN WILL BE SAVED ON UNIT   52 AT END OF TIME STEP  62, STRESS PERIOD    3
1
  VOLUMETRIC BUDGET FOR ENTIRE MODEL AT END OF TIME STEP 62 IN STRESS PERIOD   3
  ------------------------------------------------------------------------------

     CUMULATIVE VOLUMES      L**3       RATES FOR THIS TIME STEP      L**3/T
     ------------------                 ------------------------

           IN:                                      IN:
           ---                                      ---
             STORAGE =       29636.0508               STORAGE =         429.1423
       CONSTANT HEAD =           0.0000         CONSTANT HEAD =           0.0000
               WELLS =           0.0000                 WELLS =           0.0000
     HEAD DEP BOUNDS =       95071.4297       HEAD DEP BOUNDS =         622.5140

            TOTAL IN =      124707.4844              TOTAL IN =        1051.6562

          OUT:                                     OUT:
          ----                                     ----
             STORAGE =           0.1866               STORAGE =           0.0000
       CONSTANT HEAD =           0.0000         CONSTANT HEAD =           0.0000
               WELLS =       31000.0000                 WELLS =         500.0000
     HEAD DEP BOUNDS =       93709.1250       HEAD DEP BOUNDS =         551.6564

           TOTAL OUT =      124709.3125             TOTAL OUT =        1051.6565

            IN - OUT =          -1.8281              IN - OUT =      -2.4414E-04

 PERCENT DISCREPANCY =           0.00     PERCENT DISCREPANCY =           0.00






          TIME SUMMARY AT END OF TIME STEP  62 IN STRESS PERIOD    3
                    SECONDS     MINUTES      HOURS       DAYS        YEARS
                    -----------------------------------------------------------
   TIME STEP LENGTH  86400.      1440.0      24.000      1.0000     2.73785E-03
 STRESS PERIOD TIME 5.35680E+06  89280.      1488.0      62.000     0.16975    
         TOTAL TIME 1.40832E+07 2.34720E+05  3912.0      163.00     0.44627    
1
 
 SOLVING FOR HEAD 

 OUTPUT CONTROL FOR STRESS PERIOD    3   TIME STEP  63
    SAVE HEAD FOR ALL LAYERS
    SAVE DRAWDOWN FOR ALL LAYERS
    SAVE BUDGET
    PRINT HEAD FOR ALL LAYERS
    PRINT BUDGET
 UBDSV1 SAVING "         STORAGE" ON UNIT  53 AT TIME STEP 63, STRESS PERIOD   3
 UBDSV2 SAVING "   CONSTANT HEAD" ON UNIT  53 AT TIME STEP 63, STRESS PERIOD   3
 UBDSV1 SAVING "FLOW RIGHT FACE " ON UNIT  53 AT TIME STEP 63, STRESS PERIOD   3
 UBDSV1 SAVING "FLOW FRONT FACE " ON UNIT  53 AT TIME STEP 63, STRESS PERIOD   3
1
              HEAD IN LAYER   1 AT END OF TIME STEP  63 IN STRESS PERIOD    3
  ---------------------------------------------------------------------------

            1           2           3           4           5           6           7           8           9          10
           11          12          13          14          15          16          17          18          19          20
 ........................................................................................................................
   1    9.990       9.488       8.981       8.468       7.949       7.425       6.896       6.366       5.838       5.315    
        4.797       4.283       3.771       3.256       2.736       2.208       1.672       1.127      0.5728      1.1296E-02
   2    9.990       9.479       8.961       8.435       7.900       7.356       6.806       6.255       5.709       5.178    
        4.666       4.168       3.677       3.184       2.684       2.172       1.648       1.113      0.5661      1.1164E-02
   3    9.989       9.461       8.923       8.371       7.801       7.212       6.605       5.989       5.384       4.822    
        4.336       3.895       3.467       3.031       2.577       2.101       1.603       1.086      0.5539      1.0923E-02
   4    9.989       9.441       8.878       8.292       7.671       7.004       6.283       5.506       4.700       3.972    
        3.640       3.395       3.129       2.810       2.436       2.013       1.550       1.056      0.5403      1.0653E-02
   5    9.989       9.430       8.854       8.246       7.586       6.847       5.982       4.905       3.446       1.228    
        2.360       2.771       2.811       2.642       2.344       1.961       1.521       1.041      0.5336      1.0522E-02
   6    9.989       9.441       8.879       8.292       7.672       7.005       6.284       5.508       4.702       3.974    
        3.641       3.396       3.130       2.811       2.437       2.013       1.550       1.056      0.5404      1.0657E-02
   7    9.989       9.462       8.924       8.373       7.804       7.216       6.610       5.994       5.390       4.828    
        4.341       3.900       3.472       3.035       2.580       2.103       1.605       1.087      0.5544      1.0933E-02
   8    9.990       9.481       8.965       8.442       7.909       7.367       6.819       6.269       5.725       5.194    
        4.682       4.183       3.690       3.195       2.692       2.179       1.653       1.115      0.5675      1.1192E-02
   9    9.990       9.493       8.991       8.484       7.971       7.452       6.930       6.405       5.880       5.358    
        4.838       4.321       3.804       3.284       2.758       2.225       1.683       1.134      0.5762      1.1364E-02
  10    9.990       9.499       9.003       8.502       7.997       7.488       6.975       6.458       5.940       5.420    
        4.899       4.376       3.850       3.321       2.786       2.245       1.697       1.142      0.5802      1.1443E-02

 HEAD WILL BE SAVED ON UNIT   51 AT END OF TIME STEP  63, STRESS PERIOD    3

 DRAWDOWN WILL BE SAVED ON UNIT   52 AT END OF TIME STEP  63, STRESS PERIOD    3
1
  VOLUMETRIC BUDGET FOR ENTIRE MODEL AT END OF TIME STEP 63 IN STRESS PERIOD   3
  ------------------------------------------------------------------------------

     CUMULATIVE VOLUMES      L**3       RATES FOR THIS TIME STEP      L**3/T
     ------------------                 ------------------------

           IN:                                      IN:
           ---                                      ---
             STORAGE =       30063.0312               STORAGE =         426.9798
       CONSTANT HEAD =           0.0000         CONSTANT HEAD =           0.0000
               WELLS =           0.0000                 WELLS =           0.0000
     HEAD DEP BOUNDS =       95695.1953       HEAD DEP BOUNDS =         623.7636

            TOTAL IN =      125758.2266              TOTAL IN =        1050.7434

          OUT:                                     OUT:
          ----                                     ----
             STORAGE =           0.1866               STORAGE =           0.0000
       CONSTANT HEAD =           0.0000         CONSTANT HEAD =           0.0000
               WELLS =       31500.0000                 WELLS =         500.0000
     HEAD DEP BOUNDS =       94259.8594       HEAD DEP BOUNDS =         550.7370

           TOTAL OUT =      125760.0469             TOTAL OUT =        1050.7371

            IN - OUT =          -1.8203              IN - OUT =       6.3477E-03

 PERCENT DISCREPANCY =           0.00     PERCENT DISCREPANCY =           0.00






          TIME SUMMARY AT END OF TIME STEP  63 IN STRESS PERIOD    3
                    SECONDS     MINUTES      HOURS       DAYS        YEARS
                    -----------------------------------------------------------
   TIME STEP LENGTH  86400.      1440.0      24.000      1.0000     2.73785E-03
 STRESS PERIOD TIME 5.44320E+06  90720.      1512.0      63.000     0.17248    
         TOTAL TIME 1.41696E+07 2.36160E+05  3936.0      164.00     0.44901    
1
 
 SOLVING FOR HEAD 

 OUTPUT CONTROL FOR STRESS PERIOD    3   TIME STEP  64
    SAVE HEAD FOR ALL LAYERS
    SAVE DRAWDOWN FOR ALL LAYERS
    SAVE BUDGET
    PRINT HEAD FOR ALL LAYERS
    PRINT BUDGET
 UBDSV1 SAVING "         STORAGE" ON UNIT  53 AT TIME STEP 64, STRESS PERIOD   3
 UBDSV2 SAVING "   CONSTANT HEAD" ON UNIT  53 AT TIME STEP 64, STRESS PERIOD   3
 UBDSV1 SAVING "FLOW RIGHT FACE " ON UNIT  53 AT TIME STEP 64, STRESS PERIOD   3
 UBDSV1 SAVING "FLOW FRONT FACE " ON UNIT  53 AT TIME STEP 64, STRESS PERIOD   3
1
              HEAD IN LAYER   1 AT END OF TIME STEP  64 IN STRESS PERIOD    3
  ---------------------------------------------------------------------------

            1           2           3           4           5           6           7           8           9          10
           11          12          13          14          15          16          17          18          19          20
 ........................................................................................................................
   1    9.990       9.487       8.979       8.466       7.946       7.421       6.892       6.362       5.833       5.309    
        4.791       4.278       3.766       3.252       2.733       2.206       1.670       1.125      0.5722      1.1283E-02
   2    9.990       9.478       8.959       8.432       7.896       7.352       6.801       6.249       5.702       5.171    
        4.659       4.162       3.672       3.179       2.680       2.169       1.646       1.111      0.5653      1.1148E-02
   3    9.989       9.460       8.920       8.367       7.796       7.206       6.598       5.981       5.375       4.813    
        4.327       3.886       3.459       3.025       2.572       2.097       1.600       1.084      0.5528      1.0901E-02
   4    9.989       9.439       8.875       8.287       7.665       6.997       6.274       5.496       4.690       3.961    
        3.629       3.384       3.119       2.802       2.429       2.007       1.546       1.053      0.5389      1.0626E-02
   5    9.989       9.429       8.851       8.241       7.580       6.839       5.973       4.894       3.434       1.215    
        2.348       2.759       2.801       2.633       2.336       1.956       1.517       1.038      0.5321      1.0493E-02
   6    9.989       9.439       8.876       8.288       7.666       6.998       6.276       5.498       4.691       3.963    
        3.631       3.386       3.121       2.803       2.430       2.008       1.546       1.054      0.5391      1.0630E-02
   7    9.989       9.460       8.922       8.370       7.800       7.210       6.603       5.987       5.381       4.819    
        4.333       3.892       3.464       3.029       2.575       2.099       1.602       1.085      0.5533      1.0912E-02
   8    9.990       9.480       8.963       8.439       7.906       7.363       6.815       6.264       5.719       5.188    
        4.676       4.177       3.685       3.191       2.689       2.176       1.651       1.114      0.5668      1.1178E-02
   9    9.990       9.492       8.990       8.482       7.968       7.449       6.926       6.401       5.876       5.354    
        4.835       4.318       3.801       3.281       2.755       2.223       1.682       1.133      0.5758      1.1354E-02
  10    9.990       9.498       9.002       8.501       7.996       7.486       6.972       6.456       5.937       5.417    
        4.896       4.373       3.848       3.319       2.784       2.243       1.696       1.142      0.5799      1.1437E-02

 HEAD WILL BE SAVED ON UNIT   51 AT END OF TIME STEP  64, STRESS PERIOD    3

 DRAWDOWN WILL BE SAVED ON UNIT   52 AT END OF TIME STEP  64, STRESS PERIOD    3
1
  VOLUMETRIC BUDGET FOR ENTIRE MODEL AT END OF TIME STEP 64 IN STRESS PERIOD   3
  ------------------------------------------------------------------------------

     CUMULATIVE VOLUMES      L**3       RATES FOR THIS TIME STEP      L**3/T
     ------------------                 ------------------------

           IN:                                      IN:
           ---                                      ---
             STORAGE =       30487.8379               STORAGE =         424.8074
       CONSTANT HEAD =           0.0000         CONSTANT HEAD =           0.0000
               WELLS =           0.0000                 WELLS =           0.0000
     HEAD DEP BOUNDS =       96320.1953       HEAD DEP BOUNDS =         625.0012

            TOTAL IN =      126808.0312              TOTAL IN =        1049.8086

          OUT:                                     OUT:
          ----                                     ----
             STORAGE =           0.1866               STORAGE =           0.0000
       CONSTANT HEAD =           0.0000         CONSTANT HEAD =           0.0000
               WELLS =       32000.0000                 WELLS =         500.0000
     HEAD DEP BOUNDS =       94809.6719       HEAD DEP BOUNDS =         549.8110

           TOTAL OUT =      126809.8594             TOTAL OUT =        1049.8110

            IN - OUT =          -1.8281              IN - OUT =      -2.4414E-03

 PERCENT DISCREPANCY =           0.00     PERCENT DISCREPANCY =           0.00






          TIME SUMMARY AT END OF TIME STEP  64 IN STRESS PERIOD    3
                    SECONDS     MINUTES      HOURS       DAYS        YEARS
                    -----------------------------------------------------------
   TIME STEP LENGTH  86400.      1440.0      24.000      1.0000     2.73785E-03
 STRESS PERIOD TIME 5.52960E+06  92160.      1536.0      64.000     0.17522    
         TOTAL TIME 1.42560E+07 2.37600E+05  3960.0      165.00     0.45175    
1
 
 SOLVING FOR HEAD 

 OUTPUT CONTROL FOR STRESS PERIOD    3   TIME STEP  65
    SAVE HEAD FOR ALL LAYERS
    SAVE DRAWDOWN FOR ALL LAYERS
    SAVE BUDGET
    PRINT HEAD FOR ALL LAYERS
    PRINT BUDGET
 UBDSV1 SAVING "         STORAGE" ON UNIT  53 AT TIME STEP 65, STRESS PERIOD   3
 UBDSV2 SAVING "   CONSTANT HEAD" ON UNIT  53 AT TIME STEP 65, STRESS PERIOD   3
 UBDSV1 SAVING "FLOW RIGHT FACE " ON UNIT  53 AT TIME STEP 65, STRESS PERIOD   3
 UBDSV1 SAVING "FLOW FRONT FACE " ON UNIT  53 AT TIME STEP 65, STRESS PERIOD   3
1
              HEAD IN LAYER   1 AT END OF TIME STEP  65 IN STRESS PERIOD    3
  ---------------------------------------------------------------------------

            1           2           3           4           5           6           7           8           9          10
           11          12          13          14          15          16          17          18          19          20
 ........................................................................................................................
   1    9.990       9.487       8.978       8.463       7.943       7.417       6.887       6.357       5.828       5.304    
        4.786       4.273       3.762       3.248       2.729       2.203       1.668       1.124      0.5715      1.1270E-02
   2    9.990       9.477       8.957       8.429       7.893       7.347       6.795       6.243       5.696       5.164    
        4.653       4.156       3.666       3.174       2.675       2.166       1.643       1.109      0.5645      1.1132E-02
   3    9.989       9.458       8.918       8.363       7.791       7.200       6.591       5.973       5.367       4.804    
        4.318       3.878       3.452       3.018       2.566       2.092       1.596       1.082      0.5517      1.0879E-02
   4    9.989       9.438       8.872       8.282       7.658       6.989       6.265       5.486       4.679       3.950    
        3.618       3.374       3.110       2.793       2.422       2.002       1.541       1.051      0.5375      1.0599E-02
   5    9.989       9.427       8.848       8.236       7.573       6.831       5.963       4.884       3.422       1.203    
        2.336       2.748       2.790       2.624       2.329       1.950       1.512       1.035      0.5307      1.0464E-02
   6    9.989       9.438       8.873       8.283       7.660       6.991       6.267       5.488       4.681       3.952    
        3.620       3.376       3.111       2.795       2.423       2.002       1.542       1.051      0.5377      1.0603E-02
   7    9.989       9.459       8.920       8.366       7.795       7.204       6.596       5.979       5.373       4.811    
        4.324       3.884       3.457       3.022       2.570       2.095       1.598       1.083      0.5523      1.0890E-02
   8    9.990       9.479       8.962       8.437       7.902       7.359       6.810       6.259       5.713       5.182    
        4.670       4.172       3.680       3.186       2.685       2.173       1.648       1.112      0.5661      1.1163E-02
   9    9.990       9.492       8.989       8.480       7.966       7.447       6.923       6.398       5.873       5.350    
        4.831       4.314       3.798       3.278       2.753       2.221       1.680       1.132      0.5753      1.1345E-02
  10    9.990       9.498       9.001       8.500       7.994       7.484       6.970       6.453       5.934       5.414    
        4.893       4.371       3.846       3.317       2.782       2.242       1.695       1.141      0.5796      1.1430E-02

 HEAD WILL BE SAVED ON UNIT   51 AT END OF TIME STEP  65, STRESS PERIOD    3

 DRAWDOWN WILL BE SAVED ON UNIT   52 AT END OF TIME STEP  65, STRESS PERIOD    3
1
  VOLUMETRIC BUDGET FOR ENTIRE MODEL AT END OF TIME STEP 65 IN STRESS PERIOD   3
  ------------------------------------------------------------------------------

     CUMULATIVE VOLUMES      L**3       RATES FOR THIS TIME STEP      L**3/T
     ------------------                 ------------------------

           IN:                                      IN:
           ---                                      ---
             STORAGE =       30910.4746               STORAGE =         422.6363
       CONSTANT HEAD =           0.0000         CONSTANT HEAD =           0.0000
               WELLS =           0.0000                 WELLS =           0.0000
     HEAD DEP BOUNDS =       96946.4375       HEAD DEP BOUNDS =         626.2411

            TOTAL IN =      127856.9141              TOTAL IN =        1048.8774

          OUT:                                     OUT:
          ----                                     ----
             STORAGE =           0.1866               STORAGE =           0.0000
       CONSTANT HEAD =           0.0000         CONSTANT HEAD =           0.0000
               WELLS =       32500.0000                 WELLS =         500.0000
     HEAD DEP BOUNDS =       95358.5547       HEAD DEP BOUNDS =         548.8795

           TOTAL OUT =      127858.7422             TOTAL OUT =        1048.8795

            IN - OUT =          -1.8281              IN - OUT =      -2.0752E-03

 PERCENT DISCREPANCY =           0.00     PERCENT DISCREPANCY =           0.00






          TIME SUMMARY AT END OF TIME STEP  65 IN STRESS PERIOD    3
                    SECONDS     MINUTES      HOURS       DAYS        YEARS
                    -----------------------------------------------------------
   TIME STEP LENGTH  86400.      1440.0      24.000      1.0000     2.73785E-03
 STRESS PERIOD TIME 5.61600E+06  93600.      1560.0      65.000     0.17796    
         TOTAL TIME 1.43424E+07 2.39040E+05  3984.0      166.00     0.45448    
1
 
 SOLVING FOR HEAD 

 OUTPUT CONTROL FOR STRESS PERIOD    3   TIME STEP  66
    SAVE HEAD FOR ALL LAYERS
    SAVE DRAWDOWN FOR ALL LAYERS
    SAVE BUDGET
    PRINT HEAD FOR ALL LAYERS
    PRINT BUDGET
 UBDSV1 SAVING "         STORAGE" ON UNIT  53 AT TIME STEP 66, STRESS PERIOD   3
 UBDSV2 SAVING "   CONSTANT HEAD" ON UNIT  53 AT TIME STEP 66, STRESS PERIOD   3
 UBDSV1 SAVING "FLOW RIGHT FACE " ON UNIT  53 AT TIME STEP 66, STRESS PERIOD   3
 UBDSV1 SAVING "FLOW FRONT FACE " ON UNIT  53 AT TIME STEP 66, STRESS PERIOD   3
1
              HEAD IN LAYER   1 AT END OF TIME STEP  66 IN STRESS PERIOD    3
  ---------------------------------------------------------------------------

            1           2           3           4           5           6           7           8           9          10
           11          12          13          14          15          16          17          18          19          20
 ........................................................................................................................
   1    9.990       9.486       8.976       8.461       7.940       7.413       6.883       6.352       5.823       5.299    
        4.781       4.268       3.757       3.244       2.726       2.200       1.666       1.123      0.5708      1.1257E-02
   2    9.990       9.476       8.955       8.427       7.889       7.343       6.790       6.236       5.690       5.158    
        4.646       4.150       3.660       3.169       2.671       2.162       1.641       1.108      0.5637      1.1115E-02
   3    9.989       9.457       8.915       8.360       7.786       7.194       6.583       5.965       5.358       4.796    
        4.310       3.870       3.444       3.011       2.561       2.088       1.593       1.079      0.5506      1.0857E-02
   4    9.989       9.436       8.869       8.278       7.653       6.982       6.257       5.476       4.669       3.939    
        3.607       3.364       3.100       2.785       2.415       1.996       1.537       1.048      0.5362      1.0572E-02
   5    9.989       9.425       8.844       8.231       7.567       6.823       5.954       4.873       3.411       1.190    
        2.324       2.737       2.780       2.615       2.322       1.944       1.508       1.032      0.5292      1.0435E-02
   6    9.989       9.436       8.870       8.279       7.654       6.983       6.258       5.478       4.671       3.941    
        3.609       3.366       3.102       2.787       2.416       1.997       1.538       1.048      0.5364      1.0576E-02
   7    9.989       9.458       8.917       8.363       7.790       7.198       6.589       5.971       5.365       4.802    
        4.316       3.876       3.450       3.016       2.564       2.090       1.595       1.081      0.5512      1.0869E-02
   8    9.990       9.478       8.960       8.434       7.899       7.355       6.805       6.253       5.708       5.176    
        4.664       4.166       3.675       3.182       2.681       2.170       1.646       1.111      0.5653      1.1148E-02
   9    9.990       9.491       8.988       8.479       7.964       7.444       6.920       6.394       5.869       5.346    
        4.827       4.311       3.794       3.275       2.750       2.219       1.679       1.131      0.5748      1.1335E-02
  10    9.990       9.497       9.000       8.499       7.993       7.482       6.968       6.451       5.932       5.412    
        4.891       4.368       3.843       3.315       2.781       2.241       1.694       1.140      0.5792      1.1423E-02

 HEAD WILL BE SAVED ON UNIT   51 AT END OF TIME STEP  66, STRESS PERIOD    3

 DRAWDOWN WILL BE SAVED ON UNIT   52 AT END OF TIME STEP  66, STRESS PERIOD    3
1
  VOLUMETRIC BUDGET FOR ENTIRE MODEL AT END OF TIME STEP 66 IN STRESS PERIOD   3
  ------------------------------------------------------------------------------

     CUMULATIVE VOLUMES      L**3       RATES FOR THIS TIME STEP      L**3/T
     ------------------                 ------------------------

           IN:                                      IN:
           ---                                      ---
             STORAGE =       31330.9395               STORAGE =         420.4641
       CONSTANT HEAD =           0.0000         CONSTANT HEAD =           0.0000
               WELLS =           0.0000                 WELLS =           0.0000
     HEAD DEP BOUNDS =       97573.9219       HEAD DEP BOUNDS =         627.4825

            TOTAL IN =      128904.8594              TOTAL IN =        1047.9465

          OUT:                                     OUT:
          ----                                     ----
             STORAGE =           0.1866               STORAGE =           0.0000
       CONSTANT HEAD =           0.0000         CONSTANT HEAD =           0.0000
               WELLS =       33000.0000                 WELLS =         500.0000
     HEAD DEP BOUNDS =       95906.5000       HEAD DEP BOUNDS =         547.9426

           TOTAL OUT =      128906.6875             TOTAL OUT =        1047.9426

            IN - OUT =          -1.8281              IN - OUT =       3.9062E-03

 PERCENT DISCREPANCY =           0.00     PERCENT DISCREPANCY =           0.00






          TIME SUMMARY AT END OF TIME STEP  66 IN STRESS PERIOD    3
                    SECONDS     MINUTES      HOURS       DAYS        YEARS
                    -----------------------------------------------------------
   TIME STEP LENGTH  86400.      1440.0      24.000      1.0000     2.73785E-03
 STRESS PERIOD TIME 5.70240E+06  95040.      1584.0      66.000     0.18070    
         TOTAL TIME 1.44288E+07 2.40480E+05  4008.0      167.00     0.45722    
1
 
 SOLVING FOR HEAD 

 OUTPUT CONTROL FOR STRESS PERIOD    3   TIME STEP  67
    SAVE HEAD FOR ALL LAYERS
    SAVE DRAWDOWN FOR ALL LAYERS
    SAVE BUDGET
    PRINT HEAD FOR ALL LAYERS
    PRINT BUDGET
 UBDSV1 SAVING "         STORAGE" ON UNIT  53 AT TIME STEP 67, STRESS PERIOD   3
 UBDSV2 SAVING "   CONSTANT HEAD" ON UNIT  53 AT TIME STEP 67, STRESS PERIOD   3
 UBDSV1 SAVING "FLOW RIGHT FACE " ON UNIT  53 AT TIME STEP 67, STRESS PERIOD   3
 UBDSV1 SAVING "FLOW FRONT FACE " ON UNIT  53 AT TIME STEP 67, STRESS PERIOD   3
1
              HEAD IN LAYER   1 AT END OF TIME STEP  67 IN STRESS PERIOD    3
  ---------------------------------------------------------------------------

            1           2           3           4           5           6           7           8           9          10
           11          12          13          14          15          16          17          18          19          20
 ........................................................................................................................
   1    9.990       9.485       8.975       8.459       7.937       7.409       6.879       6.347       5.818       5.293    
        4.776       4.263       3.752       3.240       2.723       2.198       1.664       1.121      0.5701      1.1243E-02
   2    9.990       9.475       8.953       8.424       7.885       7.338       6.785       6.230       5.683       5.151    
        4.639       4.143       3.655       3.164       2.667       2.159       1.638       1.106      0.5628      1.1098E-02
   3    9.989       9.456       8.913       8.356       7.781       7.188       6.576       5.957       5.350       4.787    
        4.301       3.862       3.437       3.005       2.555       2.083       1.590       1.077      0.5495      1.0834E-02
   4    9.989       9.435       8.866       8.274       7.647       6.974       6.248       5.467       4.658       3.929    
        3.597       3.354       3.091       2.777       2.408       1.991       1.533       1.045      0.5348      1.0545E-02
   5    9.989       9.424       8.841       8.227       7.561       6.816       5.945       4.863       3.399       1.178    
        2.312       2.726       2.770       2.606       2.314       1.938       1.504       1.029      0.5277      1.0406E-02
   6    9.989       9.435       8.867       8.274       7.648       6.976       6.250       5.469       4.660       3.931    
        3.599       3.356       3.093       2.779       2.409       1.992       1.534       1.046      0.5350      1.0550E-02
   7    9.989       9.457       8.915       8.359       7.785       7.192       6.582       5.964       5.357       4.794    
        4.308       3.868       3.442       3.010       2.559       2.086       1.592       1.079      0.5501      1.0848E-02
   8    9.990       9.477       8.958       8.431       7.895       7.351       6.800       6.248       5.702       5.170    
        4.658       4.161       3.670       3.177       2.677       2.167       1.644       1.109      0.5646      1.1133E-02
   9    9.990       9.491       8.987       8.477       7.962       7.441       6.917       6.391       5.865       5.342    
        4.823       4.307       3.791       3.272       2.748       2.217       1.678       1.130      0.5743      1.1325E-02
  10    9.990       9.497       9.000       8.498       7.991       7.480       6.965       6.448       5.929       5.409    
        4.888       4.366       3.841       3.312       2.779       2.239       1.693       1.139      0.5789      1.1416E-02

 HEAD WILL BE SAVED ON UNIT   51 AT END OF TIME STEP  67, STRESS PERIOD    3

 DRAWDOWN WILL BE SAVED ON UNIT   52 AT END OF TIME STEP  67, STRESS PERIOD    3
1
  VOLUMETRIC BUDGET FOR ENTIRE MODEL AT END OF TIME STEP 67 IN STRESS PERIOD   3
  ------------------------------------------------------------------------------

     CUMULATIVE VOLUMES      L**3       RATES FOR THIS TIME STEP      L**3/T
     ------------------                 ------------------------

           IN:                                      IN:
           ---                                      ---
             STORAGE =       31749.2227               STORAGE =         418.2828
       CONSTANT HEAD =           0.0000         CONSTANT HEAD =           0.0000
               WELLS =           0.0000                 WELLS =           0.0000
     HEAD DEP BOUNDS =       98202.6406       HEAD DEP BOUNDS =         628.7214

            TOTAL IN =      129951.8594              TOTAL IN =        1047.0043

          OUT:                                     OUT:
          ----                                     ----
             STORAGE =           0.1866               STORAGE =           0.0000
       CONSTANT HEAD =           0.0000         CONSTANT HEAD =           0.0000
               WELLS =       33500.0000                 WELLS =         500.0000
     HEAD DEP BOUNDS =       96453.5000       HEAD DEP BOUNDS =         547.0016

           TOTAL OUT =      129953.6875             TOTAL OUT =        1047.0016

            IN - OUT =          -1.8281              IN - OUT =       2.6855E-03

 PERCENT DISCREPANCY =           0.00     PERCENT DISCREPANCY =           0.00






          TIME SUMMARY AT END OF TIME STEP  67 IN STRESS PERIOD    3
                    SECONDS     MINUTES      HOURS       DAYS        YEARS
                    -----------------------------------------------------------
   TIME STEP LENGTH  86400.      1440.0      24.000      1.0000     2.73785E-03
 STRESS PERIOD TIME 5.78880E+06  96480.      1608.0      67.000     0.18344    
         TOTAL TIME 1.45152E+07 2.41920E+05  4032.0      168.00     0.45996    
1
 
 SOLVING FOR HEAD 

 OUTPUT CONTROL FOR STRESS PERIOD    3   TIME STEP  68
    SAVE HEAD FOR ALL LAYERS
    SAVE DRAWDOWN FOR ALL LAYERS
    SAVE BUDGET
    PRINT HEAD FOR ALL LAYERS
    PRINT BUDGET
 UBDSV1 SAVING "         STORAGE" ON UNIT  53 AT TIME STEP 68, STRESS PERIOD   3
 UBDSV2 SAVING "   CONSTANT HEAD" ON UNIT  53 AT TIME STEP 68, STRESS PERIOD   3
 UBDSV1 SAVING "FLOW RIGHT FACE " ON UNIT  53 AT TIME STEP 68, STRESS PERIOD   3
 UBDSV1 SAVING "FLOW FRONT FACE " ON UNIT  53 AT TIME STEP 68, STRESS PERIOD   3
1
              HEAD IN LAYER   1 AT END OF TIME STEP  68 IN STRESS PERIOD    3
  ---------------------------------------------------------------------------

            1           2           3           4           5           6           7           8           9          10
           11          12          13          14          15          16          17          18          19          20
 ........................................................................................................................
   1    9.990       9.484       8.973       8.456       7.934       7.406       6.874       6.342       5.812       5.288    
        4.770       4.258       3.748       3.236       2.719       2.195       1.662       1.120      0.5694      1.1229E-02
   2    9.990       9.474       8.951       8.421       7.881       7.333       6.779       6.224       5.677       5.145    
        4.633       4.137       3.649       3.159       2.663       2.155       1.636       1.104      0.5619      1.1081E-02
   3    9.989       9.455       8.911       8.352       7.777       7.182       6.569       5.950       5.342       4.778    
        4.293       3.854       3.429       2.998       2.549       2.079       1.586       1.075      0.5483      1.0812E-02
   4    9.989       9.433       8.863       8.269       7.641       6.967       6.240       5.457       4.648       3.918    
        3.586       3.344       3.082       2.769       2.402       1.985       1.529       1.042      0.5334      1.0519E-02
   5    9.989       9.422       8.838       8.222       7.555       6.808       5.936       4.853       3.388       1.166    
        2.301       2.715       2.761       2.598       2.307       1.932       1.499       1.026      0.5263      1.0378E-02
   6    9.989       9.433       8.864       8.270       7.642       6.969       6.242       5.460       4.650       3.920    
        3.588       3.346       3.084       2.771       2.403       1.986       1.530       1.043      0.5337      1.0523E-02
   7    9.989       9.456       8.913       8.355       7.781       7.187       6.576       5.956       5.349       4.786    
        4.300       3.860       3.435       3.003       2.554       2.082       1.589       1.076      0.5491      1.0827E-02
   8    9.990       9.476       8.957       8.429       7.892       7.347       6.795       6.243       5.696       5.165    
        4.652       4.155       3.665       3.173       2.674       2.164       1.642       1.108      0.5638      1.1118E-02
   9    9.990       9.490       8.985       8.475       7.959       7.438       6.914       6.387       5.861       5.338    
        4.819       4.303       3.788       3.269       2.745       2.215       1.676       1.129      0.5738      1.1316E-02
  10    9.990       9.497       8.999       8.496       7.989       7.478       6.963       6.446       5.926       5.406    
        4.885       4.363       3.838       3.310       2.777       2.238       1.692       1.139      0.5785      1.1409E-02

 HEAD WILL BE SAVED ON UNIT   51 AT END OF TIME STEP  68, STRESS PERIOD    3

 DRAWDOWN WILL BE SAVED ON UNIT   52 AT END OF TIME STEP  68, STRESS PERIOD    3
1
  VOLUMETRIC BUDGET FOR ENTIRE MODEL AT END OF TIME STEP 68 IN STRESS PERIOD   3
  ------------------------------------------------------------------------------

     CUMULATIVE VOLUMES      L**3       RATES FOR THIS TIME STEP      L**3/T
     ------------------                 ------------------------

           IN:                                      IN:
           ---                                      ---
             STORAGE =       32165.3242               STORAGE =         416.1012
       CONSTANT HEAD =           0.0000         CONSTANT HEAD =           0.0000
               WELLS =           0.0000                 WELLS =           0.0000
     HEAD DEP BOUNDS =       98832.5938       HEAD DEP BOUNDS =         629.9546

            TOTAL IN =      130997.9219              TOTAL IN =        1046.0558

          OUT:                                     OUT:
          ----                                     ----
             STORAGE =           0.1866               STORAGE =           0.0000
       CONSTANT HEAD =           0.0000         CONSTANT HEAD =           0.0000
               WELLS =       34000.0000                 WELLS =         500.0000
     HEAD DEP BOUNDS =       96999.5547       HEAD DEP BOUNDS =         546.0566

           TOTAL OUT =      130999.7422             TOTAL OUT =        1046.0566

            IN - OUT =          -1.8203              IN - OUT =      -8.5449E-04

 PERCENT DISCREPANCY =           0.00     PERCENT DISCREPANCY =           0.00






          TIME SUMMARY AT END OF TIME STEP  68 IN STRESS PERIOD    3
                    SECONDS     MINUTES      HOURS       DAYS        YEARS
                    -----------------------------------------------------------
   TIME STEP LENGTH  86400.      1440.0      24.000      1.0000     2.73785E-03
 STRESS PERIOD TIME 5.87520E+06  97920.      1632.0      68.000     0.18617    
         TOTAL TIME 1.46016E+07 2.43360E+05  4056.0      169.00     0.46270    
1
 
 SOLVING FOR HEAD 

 OUTPUT CONTROL FOR STRESS PERIOD    3   TIME STEP  69
    SAVE HEAD FOR ALL LAYERS
    SAVE DRAWDOWN FOR ALL LAYERS
    SAVE BUDGET
    PRINT HEAD FOR ALL LAYERS
    PRINT BUDGET
 UBDSV1 SAVING "         STORAGE" ON UNIT  53 AT TIME STEP 69, STRESS PERIOD   3
 UBDSV2 SAVING "   CONSTANT HEAD" ON UNIT  53 AT TIME STEP 69, STRESS PERIOD   3
 UBDSV1 SAVING "FLOW RIGHT FACE " ON UNIT  53 AT TIME STEP 69, STRESS PERIOD   3
 UBDSV1 SAVING "FLOW FRONT FACE " ON UNIT  53 AT TIME STEP 69, STRESS PERIOD   3
1
              HEAD IN LAYER   1 AT END OF TIME STEP  69 IN STRESS PERIOD    3
  ---------------------------------------------------------------------------

            1           2           3           4           5           6           7           8           9          10
           11          12          13          14          15          16          17          18          19          20
 ........................................................................................................................
   1    9.990       9.483       8.972       8.454       7.930       7.402       6.870       6.337       5.807       5.283    
        4.765       4.253       3.743       3.232       2.716       2.192       1.660       1.119      0.5687      1.1216E-02
   2    9.990       9.473       8.949       8.418       7.877       7.329       6.774       6.218       5.670       5.138    
        4.626       4.131       3.643       3.154       2.658       2.152       1.633       1.102      0.5611      1.1064E-02
   3    9.989       9.453       8.908       8.349       7.772       7.176       6.563       5.942       5.333       4.770    
        4.284       3.846       3.422       2.992       2.544       2.074       1.583       1.073      0.5472      1.0790E-02
   4    9.989       9.432       8.860       8.265       7.635       6.960       6.231       5.448       4.638       3.908    
        3.576       3.334       3.073       2.761       2.395       1.980       1.525       1.040      0.5321      1.0492E-02
   5    9.989       9.421       8.835       8.217       7.548       6.800       5.927       4.843       3.377       1.155    
        2.290       2.705       2.751       2.589       2.300       1.926       1.495       1.023      0.5248      1.0349E-02
   6    9.989       9.432       8.861       8.266       7.636       6.962       6.233       5.450       4.640       3.910    
        3.578       3.336       3.075       2.763       2.396       1.981       1.526       1.040      0.5323      1.0496E-02
   7    9.989       9.455       8.910       8.352       7.776       7.181       6.569       5.949       5.341       4.778    
        4.292       3.853       3.428       2.997       2.548       2.078       1.585       1.074      0.5480      1.0805E-02
   8    9.990       9.476       8.955       8.426       7.889       7.343       6.791       6.237       5.691       5.159    
        4.647       4.150       3.660       3.168       2.670       2.161       1.639       1.106      0.5630      1.1103E-02
   9    9.990       9.490       8.984       8.473       7.957       7.436       6.910       6.383       5.857       5.334    
        4.816       4.300       3.784       3.266       2.743       2.213       1.675       1.128      0.5733      1.1305E-02
  10    9.990       9.496       8.998       8.495       7.988       7.476       6.961       6.443       5.923       5.403    
        4.882       4.360       3.836       3.308       2.775       2.236       1.691       1.138      0.5782      1.1402E-02

 HEAD WILL BE SAVED ON UNIT   51 AT END OF TIME STEP  69, STRESS PERIOD    3

 DRAWDOWN WILL BE SAVED ON UNIT   52 AT END OF TIME STEP  69, STRESS PERIOD    3
1
  VOLUMETRIC BUDGET FOR ENTIRE MODEL AT END OF TIME STEP 69 IN STRESS PERIOD   3
  ------------------------------------------------------------------------------

     CUMULATIVE VOLUMES      L**3       RATES FOR THIS TIME STEP      L**3/T
     ------------------                 ------------------------

           IN:                                      IN:
           ---                                      ---
             STORAGE =       32579.2480               STORAGE =         413.9248
       CONSTANT HEAD =           0.0000         CONSTANT HEAD =           0.0000
               WELLS =           0.0000                 WELLS =           0.0000
     HEAD DEP BOUNDS =       99463.7812       HEAD DEP BOUNDS =         631.1848

            TOTAL IN =      132043.0312              TOTAL IN =        1045.1096

          OUT:                                     OUT:
          ----                                     ----
             STORAGE =           0.1866               STORAGE =           0.0000
       CONSTANT HEAD =           0.0000         CONSTANT HEAD =           0.0000
               WELLS =       34500.0000                 WELLS =         500.0000
     HEAD DEP BOUNDS =       97544.6641       HEAD DEP BOUNDS =         545.1078

           TOTAL OUT =      132044.8438             TOTAL OUT =        1045.1078

            IN - OUT =          -1.8125              IN - OUT =       1.8311E-03

 PERCENT DISCREPANCY =           0.00     PERCENT DISCREPANCY =           0.00






          TIME SUMMARY AT END OF TIME STEP  69 IN STRESS PERIOD    3
                    SECONDS     MINUTES      HOURS       DAYS        YEARS
                    -----------------------------------------------------------
   TIME STEP LENGTH  86400.      1440.0      24.000      1.0000     2.73785E-03
 STRESS PERIOD TIME 5.96160E+06  99360.      1656.0      69.000     0.18891    
         TOTAL TIME 1.46880E+07 2.44800E+05  4080.0      170.00     0.46543    
1
 
 SOLVING FOR HEAD 

 OUTPUT CONTROL FOR STRESS PERIOD    3   TIME STEP  70
    SAVE HEAD FOR ALL LAYERS
    SAVE DRAWDOWN FOR ALL LAYERS
    SAVE BUDGET
    PRINT HEAD FOR ALL LAYERS
    PRINT BUDGET
 UBDSV1 SAVING "         STORAGE" ON UNIT  53 AT TIME STEP 70, STRESS PERIOD   3
 UBDSV2 SAVING "   CONSTANT HEAD" ON UNIT  53 AT TIME STEP 70, STRESS PERIOD   3
 UBDSV1 SAVING "FLOW RIGHT FACE " ON UNIT  53 AT TIME STEP 70, STRESS PERIOD   3
 UBDSV1 SAVING "FLOW FRONT FACE " ON UNIT  53 AT TIME STEP 70, STRESS PERIOD   3
1
              HEAD IN LAYER   1 AT END OF TIME STEP  70 IN STRESS PERIOD    3
  ---------------------------------------------------------------------------

            1           2           3           4           5           6           7           8           9          10
           11          12          13          14          15          16          17          18          19          20
 ........................................................................................................................
   1    9.990       9.482       8.970       8.452       7.927       7.398       6.865       6.332       5.802       5.277    
        4.760       4.248       3.739       3.228       2.712       2.189       1.658       1.117      0.5680      1.1201E-02
   2    9.990       9.472       8.947       8.415       7.874       7.324       6.768       6.212       5.664       5.131    
        4.620       4.125       3.637       3.149       2.654       2.148       1.631       1.101      0.5602      1.1047E-02
   3    9.989       9.452       8.906       8.345       7.767       7.170       6.556       5.934       5.325       4.762    
        4.276       3.838       3.415       2.985       2.538       2.070       1.580       1.071      0.5461      1.0768E-02
   4    9.989       9.430       8.857       8.260       7.629       6.953       6.223       5.439       4.628       3.897    
        3.566       3.324       3.064       2.753       2.388       1.975       1.521       1.037      0.5307      1.0465E-02
   5    9.989       9.419       8.832       8.213       7.542       6.793       5.918       4.833       3.366       1.143    
        2.278       2.694       2.742       2.581       2.293       1.921       1.491       1.021      0.5234      1.0320E-02
   6    9.989       9.431       8.858       8.262       7.631       6.955       6.225       5.441       4.631       3.900    
        3.568       3.327       3.066       2.755       2.390       1.976       1.522       1.038      0.5310      1.0470E-02
   7    9.989       9.453       8.908       8.349       7.772       7.175       6.562       5.942       5.333       4.770    
        4.284       3.845       3.421       2.991       2.543       2.073       1.582       1.072      0.5469      1.0784E-02
   8    9.990       9.475       8.953       8.424       7.885       7.339       6.786       6.232       5.685       5.153    
        4.641       4.144       3.655       3.164       2.666       2.158       1.637       1.105      0.5623      1.1087E-02
   9    9.990       9.489       8.983       8.472       7.955       7.433       6.907       6.380       5.854       5.331    
        4.812       4.296       3.781       3.263       2.740       2.211       1.673       1.127      0.5728      1.1295E-02
  10    9.990       9.496       8.997       8.494       7.986       7.474       6.958       6.440       5.921       5.400    
        4.879       4.358       3.834       3.306       2.773       2.235       1.690       1.137      0.5778      1.1394E-02

 HEAD WILL BE SAVED ON UNIT   51 AT END OF TIME STEP  70, STRESS PERIOD    3

 DRAWDOWN WILL BE SAVED ON UNIT   52 AT END OF TIME STEP  70, STRESS PERIOD    3
1
  VOLUMETRIC BUDGET FOR ENTIRE MODEL AT END OF TIME STEP 70 IN STRESS PERIOD   3
  ------------------------------------------------------------------------------

     CUMULATIVE VOLUMES      L**3       RATES FOR THIS TIME STEP      L**3/T
     ------------------                 ------------------------

           IN:                                      IN:
           ---                                      ---
             STORAGE =       32990.9883               STORAGE =         411.7407
       CONSTANT HEAD =           0.0000         CONSTANT HEAD =           0.0000
               WELLS =           0.0000                 WELLS =           0.0000
     HEAD DEP BOUNDS =      100096.1875       HEAD DEP BOUNDS =         632.4048

            TOTAL IN =      133087.1719              TOTAL IN =        1044.1455

          OUT:                                     OUT:
          ----                                     ----
             STORAGE =           0.1866               STORAGE =           0.0000
       CONSTANT HEAD =           0.0000         CONSTANT HEAD =           0.0000
               WELLS =       35000.0000                 WELLS =         500.0000
     HEAD DEP BOUNDS =       98088.8203       HEAD DEP BOUNDS =         544.1555

           TOTAL OUT =      133089.0000             TOTAL OUT =        1044.1555

            IN - OUT =          -1.8281              IN - OUT =      -1.0010E-02

 PERCENT DISCREPANCY =           0.00     PERCENT DISCREPANCY =           0.00






          TIME SUMMARY AT END OF TIME STEP  70 IN STRESS PERIOD    3
                    SECONDS     MINUTES      HOURS       DAYS        YEARS
                    -----------------------------------------------------------
   TIME STEP LENGTH  86400.      1440.0      24.000      1.0000     2.73785E-03
 STRESS PERIOD TIME 6.04800E+06 1.00800E+05  1680.0      70.000     0.19165    
         TOTAL TIME 1.47744E+07 2.46240E+05  4104.0      171.00     0.46817    
1
 
 SOLVING FOR HEAD 

 OUTPUT CONTROL FOR STRESS PERIOD    3   TIME STEP  71
    SAVE HEAD FOR ALL LAYERS
    SAVE DRAWDOWN FOR ALL LAYERS
    SAVE BUDGET
    PRINT HEAD FOR ALL LAYERS
    PRINT BUDGET
 UBDSV1 SAVING "         STORAGE" ON UNIT  53 AT TIME STEP 71, STRESS PERIOD   3
 UBDSV2 SAVING "   CONSTANT HEAD" ON UNIT  53 AT TIME STEP 71, STRESS PERIOD   3
 UBDSV1 SAVING "FLOW RIGHT FACE " ON UNIT  53 AT TIME STEP 71, STRESS PERIOD   3
 UBDSV1 SAVING "FLOW FRONT FACE " ON UNIT  53 AT TIME STEP 71, STRESS PERIOD   3
1
              HEAD IN LAYER   1 AT END OF TIME STEP  71 IN STRESS PERIOD    3
  ---------------------------------------------------------------------------

            1           2           3           4           5           6           7           8           9          10
           11          12          13          14          15          16          17          18          19          20
 ........................................................................................................................
   1    9.990       9.482       8.968       8.449       7.924       7.394       6.861       6.327       5.796       5.272    
        4.754       4.243       3.734       3.224       2.709       2.186       1.656       1.116      0.5673      1.1187E-02
   2    9.990       9.471       8.946       8.412       7.870       7.319       6.763       6.206       5.658       5.125    
        4.613       4.119       3.632       3.144       2.650       2.145       1.628       1.099      0.5593      1.1029E-02
   3    9.989       9.451       8.903       8.341       7.762       7.164       6.549       5.927       5.317       4.753    
        4.267       3.830       3.407       2.979       2.533       2.065       1.576       1.068      0.5450      1.0745E-02
   4    9.989       9.429       8.854       8.256       7.624       6.946       6.215       5.430       4.618       3.887    
        3.556       3.315       3.056       2.746       2.382       1.969       1.517       1.034      0.5294      1.0438E-02
   5    9.989       9.418       8.829       8.208       7.536       6.785       5.909       4.823       3.356       1.132    
        2.268       2.684       2.732       2.573       2.286       1.915       1.486       1.018      0.5220      1.0292E-02
   6    9.989       9.429       8.855       8.257       7.625       6.948       6.217       5.432       4.621       3.890    
        3.558       3.317       3.058       2.748       2.383       1.970       1.518       1.035      0.5297      1.0444E-02
   7    9.989       9.452       8.906       8.345       7.767       7.170       6.556       5.934       5.326       4.762    
        4.276       3.837       3.414       2.985       2.538       2.069       1.579       1.070      0.5458      1.0762E-02
   8    9.990       9.474       8.952       8.421       7.882       7.335       6.781       6.227       5.680       5.147    
        4.635       4.139       3.650       3.160       2.662       2.155       1.635       1.103      0.5615      1.1072E-02
   9    9.990       9.488       8.982       8.470       7.952       7.430       6.904       6.376       5.850       5.327    
        4.808       4.292       3.777       3.260       2.738       2.209       1.671       1.126      0.5722      1.1285E-02
  10    9.990       9.495       8.996       8.492       7.984       7.472       6.956       6.438       5.918       5.397    
        4.877       4.355       3.831       3.304       2.772       2.233       1.688       1.137      0.5774      1.1387E-02

 HEAD WILL BE SAVED ON UNIT   51 AT END OF TIME STEP  71, STRESS PERIOD    3

 DRAWDOWN WILL BE SAVED ON UNIT   52 AT END OF TIME STEP  71, STRESS PERIOD    3
1
  VOLUMETRIC BUDGET FOR ENTIRE MODEL AT END OF TIME STEP 71 IN STRESS PERIOD   3
  ------------------------------------------------------------------------------

     CUMULATIVE VOLUMES      L**3       RATES FOR THIS TIME STEP      L**3/T
     ------------------                 ------------------------

           IN:                                      IN:
           ---                                      ---
             STORAGE =       33400.5547               STORAGE =         409.5665
       CONSTANT HEAD =           0.0000         CONSTANT HEAD =           0.0000
               WELLS =           0.0000                 WELLS =           0.0000
     HEAD DEP BOUNDS =      100729.8203       HEAD DEP BOUNDS =         633.6320

            TOTAL IN =      134130.3750              TOTAL IN =        1043.1985

          OUT:                                     OUT:
          ----                                     ----
             STORAGE =           0.1866               STORAGE =           0.0000
       CONSTANT HEAD =           0.0000         CONSTANT HEAD =           0.0000
               WELLS =       35500.0000                 WELLS =         500.0000
     HEAD DEP BOUNDS =       98632.0234       HEAD DEP BOUNDS =         543.2017

           TOTAL OUT =      134132.2188             TOTAL OUT =        1043.2017

            IN - OUT =          -1.8438              IN - OUT =      -3.1738E-03

 PERCENT DISCREPANCY =           0.00     PERCENT DISCREPANCY =           0.00






          TIME SUMMARY AT END OF TIME STEP  71 IN STRESS PERIOD    3
                    SECONDS     MINUTES      HOURS       DAYS        YEARS
                    -----------------------------------------------------------
   TIME STEP LENGTH  86400.      1440.0      24.000      1.0000     2.73785E-03
 STRESS PERIOD TIME 6.13440E+06 1.02240E+05  1704.0      71.000     0.19439    
         TOTAL TIME 1.48608E+07 2.47680E+05  4128.0      172.00     0.47091    
1
 
 SOLVING FOR HEAD 

 OUTPUT CONTROL FOR STRESS PERIOD    3   TIME STEP  72
    SAVE HEAD FOR ALL LAYERS
    SAVE DRAWDOWN FOR ALL LAYERS
    SAVE BUDGET
    PRINT HEAD FOR ALL LAYERS
    PRINT BUDGET
 UBDSV1 SAVING "         STORAGE" ON UNIT  53 AT TIME STEP 72, STRESS PERIOD   3
 UBDSV2 SAVING "   CONSTANT HEAD" ON UNIT  53 AT TIME STEP 72, STRESS PERIOD   3
 UBDSV1 SAVING "FLOW RIGHT FACE " ON UNIT  53 AT TIME STEP 72, STRESS PERIOD   3
 UBDSV1 SAVING "FLOW FRONT FACE " ON UNIT  53 AT TIME STEP 72, STRESS PERIOD   3
1
              HEAD IN LAYER   1 AT END OF TIME STEP  72 IN STRESS PERIOD    3
  ---------------------------------------------------------------------------

            1           2           3           4           5           6           7           8           9          10
           11          12          13          14          15          16          17          18          19          20
 ........................................................................................................................
   1    9.990       9.481       8.967       8.447       7.921       7.390       6.856       6.322       5.791       5.266    
        4.749       4.238       3.729       3.219       2.705       2.184       1.653       1.114      0.5666      1.1172E-02
   2    9.990       9.470       8.944       8.409       7.866       7.315       6.758       6.201       5.651       5.118    
        4.607       4.112       3.626       3.139       2.646       2.142       1.625       1.097      0.5584      1.1011E-02
   3    9.989       9.450       8.901       8.338       7.757       7.158       6.542       5.919       5.309       4.745    
        4.259       3.822       3.400       2.972       2.527       2.061       1.573       1.066      0.5438      1.0723E-02
   4    9.989       9.427       8.852       8.252       7.618       6.939       6.207       5.421       4.609       3.877    
        3.546       3.305       3.047       2.738       2.375       1.964       1.513       1.032      0.5280      1.0411E-02
   5    9.989       9.416       8.826       8.204       7.530       6.778       5.901       4.813       3.345       1.121    
        2.257       2.674       2.723       2.565       2.279       1.909       1.482       1.015      0.5205      1.0263E-02
   6    9.989       9.428       8.852       8.253       7.620       6.941       6.209       5.424       4.611       3.880    
        3.549       3.308       3.049       2.740       2.377       1.965       1.514       1.032      0.5283      1.0417E-02
   7    9.989       9.451       8.903       8.342       7.762       7.164       6.549       5.927       5.318       4.754    
        4.268       3.830       3.407       2.979       2.532       2.065       1.576       1.068      0.5447      1.0741E-02
   8    9.990       9.473       8.950       8.419       7.879       7.330       6.776       6.222       5.674       5.142    
        4.630       4.134       3.645       3.155       2.659       2.151       1.632       1.102      0.5607      1.1056E-02
   9    9.990       9.488       8.981       8.468       7.950       7.427       6.901       6.373       5.846       5.323    
        4.804       4.289       3.774       3.257       2.735       2.207       1.670       1.125      0.5717      1.1274E-02
  10    9.990       9.495       8.995       8.491       7.982       7.469       6.953       6.435       5.915       5.394    
        4.874       4.352       3.828       3.301       2.770       2.232       1.687       1.136      0.5770      1.1379E-02

 HEAD WILL BE SAVED ON UNIT   51 AT END OF TIME STEP  72, STRESS PERIOD    3

 DRAWDOWN WILL BE SAVED ON UNIT   52 AT END OF TIME STEP  72, STRESS PERIOD    3
1
  VOLUMETRIC BUDGET FOR ENTIRE MODEL AT END OF TIME STEP 72 IN STRESS PERIOD   3
  ------------------------------------------------------------------------------

     CUMULATIVE VOLUMES      L**3       RATES FOR THIS TIME STEP      L**3/T
     ------------------                 ------------------------

           IN:                                      IN:
           ---                                      ---
             STORAGE =       33807.9414               STORAGE =         407.3853
       CONSTANT HEAD =           0.0000         CONSTANT HEAD =           0.0000
               WELLS =           0.0000                 WELLS =           0.0000
     HEAD DEP BOUNDS =      101364.6797       HEAD DEP BOUNDS =         634.8557

            TOTAL IN =      135172.6250              TOTAL IN =        1042.2410

          OUT:                                     OUT:
          ----                                     ----
             STORAGE =           0.1866               STORAGE =           0.0000
       CONSTANT HEAD =           0.0000         CONSTANT HEAD =           0.0000
               WELLS =       36000.0000                 WELLS =         500.0000
     HEAD DEP BOUNDS =       99174.2656       HEAD DEP BOUNDS =         542.2431

           TOTAL OUT =      135174.4531             TOTAL OUT =        1042.2432

            IN - OUT =          -1.8281              IN - OUT =      -2.1973E-03

 PERCENT DISCREPANCY =           0.00     PERCENT DISCREPANCY =           0.00






          TIME SUMMARY AT END OF TIME STEP  72 IN STRESS PERIOD    3
                    SECONDS     MINUTES      HOURS       DAYS        YEARS
                    -----------------------------------------------------------
   TIME STEP LENGTH  86400.      1440.0      24.000      1.0000     2.73785E-03
 STRESS PERIOD TIME 6.22080E+06 1.03680E+05  1728.0      72.000     0.19713    
         TOTAL TIME 1.49472E+07 2.49120E+05  4152.0      173.00     0.47365    
1
 
 SOLVING FOR HEAD 

 OUTPUT CONTROL FOR STRESS PERIOD    3   TIME STEP  73
    SAVE HEAD FOR ALL LAYERS
    SAVE DRAWDOWN FOR ALL LAYERS
    SAVE BUDGET
    PRINT HEAD FOR ALL LAYERS
    PRINT BUDGET
 UBDSV1 SAVING "         STORAGE" ON UNIT  53 AT TIME STEP 73, STRESS PERIOD   3
 UBDSV2 SAVING "   CONSTANT HEAD" ON UNIT  53 AT TIME STEP 73, STRESS PERIOD   3
 UBDSV1 SAVING "FLOW RIGHT FACE " ON UNIT  53 AT TIME STEP 73, STRESS PERIOD   3
 UBDSV1 SAVING "FLOW FRONT FACE " ON UNIT  53 AT TIME STEP 73, STRESS PERIOD   3
1
              HEAD IN LAYER   1 AT END OF TIME STEP  73 IN STRESS PERIOD    3
  ---------------------------------------------------------------------------

            1           2           3           4           5           6           7           8           9          10
           11          12          13          14          15          16          17          18          19          20
 ........................................................................................................................
   1    9.990       9.480       8.965       8.444       7.918       7.386       6.852       6.317       5.786       5.261    
        4.744       4.232       3.724       3.215       2.701       2.181       1.651       1.113      0.5658      1.1157E-02
   2    9.990       9.469       8.942       8.406       7.862       7.310       6.752       6.195       5.645       5.112    
        4.601       4.106       3.620       3.134       2.641       2.138       1.623       1.095      0.5575      1.0994E-02
   3    9.989       9.449       8.898       8.334       7.753       7.152       6.535       5.912       5.301       4.737    
        4.251       3.814       3.393       2.966       2.522       2.057       1.570       1.064      0.5427      1.0700E-02
   4    9.989       9.426       8.849       8.248       7.612       6.932       6.199       5.412       4.599       3.867    
        3.536       3.296       3.038       2.730       2.369       1.959       1.509       1.029      0.5267      1.0385E-02
   5    9.989       9.415       8.823       8.199       7.524       6.771       5.892       4.804       3.335       1.110    
        2.246       2.664       2.714       2.556       2.272       1.904       1.478       1.012      0.5191      1.0235E-02
   6    9.989       9.426       8.850       8.249       7.614       6.935       6.202       5.415       4.602       3.870    
        3.539       3.299       3.041       2.733       2.370       1.960       1.510       1.030      0.5270      1.0391E-02
   7    9.989       9.450       8.901       8.338       7.758       7.159       6.543       5.920       5.310       4.746    
        4.260       3.822       3.400       2.972       2.527       2.061       1.573       1.066      0.5436      1.0719E-02
   8    9.990       9.472       8.948       8.416       7.875       7.326       6.772       6.216       5.668       5.136    
        4.624       4.128       3.640       3.151       2.655       2.148       1.630       1.100      0.5599      1.1041E-02
   9    9.990       9.487       8.979       8.466       7.948       7.424       6.897       6.369       5.842       5.319    
        4.800       4.285       3.770       3.254       2.733       2.204       1.668       1.124      0.5712      1.1263E-02
  10    9.990       9.494       8.994       8.490       7.980       7.467       6.951       6.432       5.912       5.391    
        4.871       4.349       3.826       3.299       2.768       2.230       1.686       1.135      0.5766      1.1371E-02

 HEAD WILL BE SAVED ON UNIT   51 AT END OF TIME STEP  73, STRESS PERIOD    3

 DRAWDOWN WILL BE SAVED ON UNIT   52 AT END OF TIME STEP  73, STRESS PERIOD    3
1
  VOLUMETRIC BUDGET FOR ENTIRE MODEL AT END OF TIME STEP 73 IN STRESS PERIOD   3
  ------------------------------------------------------------------------------

     CUMULATIVE VOLUMES      L**3       RATES FOR THIS TIME STEP      L**3/T
     ------------------                 ------------------------

           IN:                                      IN:
           ---                                      ---
             STORAGE =       34213.1523               STORAGE =         405.2100
       CONSTANT HEAD =           0.0000         CONSTANT HEAD =           0.0000
               WELLS =           0.0000                 WELLS =           0.0000
     HEAD DEP BOUNDS =      102000.7578       HEAD DEP BOUNDS =         636.0756

            TOTAL IN =      136213.9062              TOTAL IN =        1041.2856

          OUT:                                     OUT:
          ----                                     ----
             STORAGE =           0.1866               STORAGE =           0.0000
       CONSTANT HEAD =           0.0000         CONSTANT HEAD =           0.0000
               WELLS =       36500.0000                 WELLS =         500.0000
     HEAD DEP BOUNDS =       99715.5469       HEAD DEP BOUNDS =         541.2825

           TOTAL OUT =      136215.7344             TOTAL OUT =        1041.2825

            IN - OUT =          -1.8281              IN - OUT =       3.1738E-03

 PERCENT DISCREPANCY =           0.00     PERCENT DISCREPANCY =           0.00






          TIME SUMMARY AT END OF TIME STEP  73 IN STRESS PERIOD    3
                    SECONDS     MINUTES      HOURS       DAYS        YEARS
                    -----------------------------------------------------------
   TIME STEP LENGTH  86400.      1440.0      24.000      1.0000     2.73785E-03
 STRESS PERIOD TIME 6.30720E+06 1.05120E+05  1752.0      73.000     0.19986    
         TOTAL TIME 1.50336E+07 2.50560E+05  4176.0      174.00     0.47639    
1
 
 SOLVING FOR HEAD 

 OUTPUT CONTROL FOR STRESS PERIOD    3   TIME STEP  74
    SAVE HEAD FOR ALL LAYERS
    SAVE DRAWDOWN FOR ALL LAYERS
    SAVE BUDGET
    PRINT HEAD FOR ALL LAYERS
    PRINT BUDGET
 UBDSV1 SAVING "         STORAGE" ON UNIT  53 AT TIME STEP 74, STRESS PERIOD   3
 UBDSV2 SAVING "   CONSTANT HEAD" ON UNIT  53 AT TIME STEP 74, STRESS PERIOD   3
 UBDSV1 SAVING "FLOW RIGHT FACE " ON UNIT  53 AT TIME STEP 74, STRESS PERIOD   3
 UBDSV1 SAVING "FLOW FRONT FACE " ON UNIT  53 AT TIME STEP 74, STRESS PERIOD   3
1
              HEAD IN LAYER   1 AT END OF TIME STEP  74 IN STRESS PERIOD    3
  ---------------------------------------------------------------------------

            1           2           3           4           5           6           7           8           9          10
           11          12          13          14          15          16          17          18          19          20
 ........................................................................................................................
   1    9.990       9.479       8.963       8.442       7.914       7.382       6.847       6.312       5.781       5.255    
        4.738       4.227       3.720       3.211       2.698       2.178       1.649       1.111      0.5651      1.1142E-02
   2    9.990       9.468       8.940       8.403       7.858       7.305       6.747       6.189       5.639       5.105    
        4.594       4.100       3.615       3.129       2.637       2.135       1.620       1.094      0.5566      1.0976E-02
   3    9.989       9.447       8.896       8.331       7.748       7.146       6.529       5.904       5.293       4.729    
        4.243       3.806       3.386       2.960       2.517       2.052       1.566       1.062      0.5416      1.0678E-02
   4    9.989       9.424       8.846       8.243       7.607       6.926       6.191       5.403       4.590       3.858    
        3.526       3.287       3.030       2.723       2.362       1.953       1.505       1.026      0.5253      1.0358E-02
   5    9.989       9.413       8.820       8.195       7.519       6.764       5.884       4.794       3.325       1.099    
        2.236       2.654       2.705       2.548       2.265       1.898       1.474       1.009      0.5177      1.0207E-02
   6    9.989       9.425       8.847       8.245       7.609       6.928       6.194       5.406       4.593       3.861    
        3.530       3.290       3.032       2.725       2.364       1.955       1.506       1.027      0.5257      1.0365E-02
   7    9.989       9.449       8.899       8.335       7.754       7.153       6.537       5.913       5.303       4.738    
        4.252       3.815       3.394       2.966       2.522       2.057       1.570       1.064      0.5426      1.0698E-02
   8    9.990       9.471       8.946       8.414       7.872       7.322       6.767       6.211       5.663       5.130    
        4.618       4.123       3.635       3.146       2.651       2.145       1.628       1.099      0.5591      1.1025E-02
   9    9.990       9.487       8.978       8.465       7.945       7.421       6.894       6.365       5.838       5.315    
        4.796       4.281       3.767       3.251       2.730       2.202       1.667       1.123      0.5706      1.1253E-02
  10    9.990       9.494       8.993       8.488       7.979       7.465       6.948       6.429       5.909       5.388    
        4.868       4.346       3.823       3.297       2.766       2.229       1.685       1.134      0.5762      1.1363E-02

 HEAD WILL BE SAVED ON UNIT   51 AT END OF TIME STEP  74, STRESS PERIOD    3

 DRAWDOWN WILL BE SAVED ON UNIT   52 AT END OF TIME STEP  74, STRESS PERIOD    3
1
  VOLUMETRIC BUDGET FOR ENTIRE MODEL AT END OF TIME STEP 74 IN STRESS PERIOD   3
  ------------------------------------------------------------------------------

     CUMULATIVE VOLUMES      L**3       RATES FOR THIS TIME STEP      L**3/T
     ------------------                 ------------------------

           IN:                                      IN:
           ---                                      ---
             STORAGE =       34616.1875               STORAGE =         403.0337
       CONSTANT HEAD =           0.0000         CONSTANT HEAD =           0.0000
               WELLS =           0.0000                 WELLS =           0.0000
     HEAD DEP BOUNDS =      102638.0469       HEAD DEP BOUNDS =         637.2878

            TOTAL IN =      137254.2344              TOTAL IN =        1040.3215

          OUT:                                     OUT:
          ----                                     ----
             STORAGE =           0.1866               STORAGE =           0.0000
       CONSTANT HEAD =           0.0000         CONSTANT HEAD =           0.0000
               WELLS =       37000.0000                 WELLS =         500.0000
     HEAD DEP BOUNDS =      100255.8672       HEAD DEP BOUNDS =         540.3210

           TOTAL OUT =      137256.0625             TOTAL OUT =        1040.3210

            IN - OUT =          -1.8281              IN - OUT =       4.8828E-04

 PERCENT DISCREPANCY =           0.00     PERCENT DISCREPANCY =           0.00






          TIME SUMMARY AT END OF TIME STEP  74 IN STRESS PERIOD    3
                    SECONDS     MINUTES      HOURS       DAYS        YEARS
                    -----------------------------------------------------------
   TIME STEP LENGTH  86400.      1440.0      24.000      1.0000     2.73785E-03
 STRESS PERIOD TIME 6.39360E+06 1.06560E+05  1776.0      74.000     0.20260    
         TOTAL TIME 1.51200E+07 2.52000E+05  4200.0      175.00     0.47912    
1
 
 SOLVING FOR HEAD 

 OUTPUT CONTROL FOR STRESS PERIOD    3   TIME STEP  75
    SAVE HEAD FOR ALL LAYERS
    SAVE DRAWDOWN FOR ALL LAYERS
    SAVE BUDGET
    PRINT HEAD FOR ALL LAYERS
    PRINT BUDGET
 UBDSV1 SAVING "         STORAGE" ON UNIT  53 AT TIME STEP 75, STRESS PERIOD   3
 UBDSV2 SAVING "   CONSTANT HEAD" ON UNIT  53 AT TIME STEP 75, STRESS PERIOD   3
 UBDSV1 SAVING "FLOW RIGHT FACE " ON UNIT  53 AT TIME STEP 75, STRESS PERIOD   3
 UBDSV1 SAVING "FLOW FRONT FACE " ON UNIT  53 AT TIME STEP 75, STRESS PERIOD   3
1
              HEAD IN LAYER   1 AT END OF TIME STEP  75 IN STRESS PERIOD    3
  ---------------------------------------------------------------------------

            1           2           3           4           5           6           7           8           9          10
           11          12          13          14          15          16          17          18          19          20
 ........................................................................................................................
   1    9.990       9.478       8.962       8.439       7.911       7.378       6.843       6.307       5.775       5.250    
        4.733       4.222       3.715       3.207       2.694       2.175       1.647       1.110      0.5643      1.1127E-02
   2    9.990       9.467       8.938       8.401       7.855       7.301       6.741       6.183       5.632       5.099    
        4.588       4.094       3.609       3.124       2.633       2.131       1.617       1.092      0.5557      1.0958E-02
   3    9.989       9.446       8.894       8.327       7.743       7.141       6.522       5.897       5.285       4.720    
        4.235       3.799       3.379       2.953       2.511       2.048       1.563       1.059      0.5404      1.0656E-02
   4    9.989       9.423       8.843       8.239       7.601       6.919       6.183       5.395       4.580       3.848    
        3.517       3.278       3.021       2.715       2.356       1.948       1.501       1.024      0.5240      1.0331E-02
   5    9.989       9.412       8.817       8.190       7.513       6.757       5.876       4.785       3.315       1.088    
        2.225       2.644       2.696       2.541       2.258       1.893       1.470       1.006      0.5163      1.0179E-02
   6    9.989       9.424       8.844       8.241       7.603       6.921       6.186       5.398       4.584       3.851    
        3.520       3.281       3.024       2.718       2.358       1.950       1.503       1.025      0.5244      1.0339E-02
   7    9.989       9.448       8.896       8.331       7.749       7.148       6.530       5.906       5.295       4.731    
        4.245       3.808       3.387       2.960       2.517       2.052       1.566       1.062      0.5415      1.0677E-02
   8    9.990       9.470       8.945       8.411       7.869       7.318       6.762       6.206       5.657       5.125    
        4.613       4.117       3.630       3.142       2.647       2.142       1.626       1.097      0.5583      1.1009E-02
   9    9.990       9.486       8.977       8.463       7.943       7.419       6.891       6.362       5.834       5.311    
        4.792       4.277       3.764       3.248       2.727       2.200       1.665       1.122      0.5701      1.1241E-02
  10    9.990       9.493       8.992       8.487       7.977       7.463       6.946       6.426       5.906       5.385    
        4.865       4.343       3.821       3.294       2.764       2.227       1.684       1.133      0.5758      1.1354E-02

 HEAD WILL BE SAVED ON UNIT   51 AT END OF TIME STEP  75, STRESS PERIOD    3

 DRAWDOWN WILL BE SAVED ON UNIT   52 AT END OF TIME STEP  75, STRESS PERIOD    3
1
  VOLUMETRIC BUDGET FOR ENTIRE MODEL AT END OF TIME STEP 75 IN STRESS PERIOD   3
  ------------------------------------------------------------------------------

     CUMULATIVE VOLUMES      L**3       RATES FOR THIS TIME STEP      L**3/T
     ------------------                 ------------------------

           IN:                                      IN:
           ---                                      ---
             STORAGE =       35017.0508               STORAGE =         400.8627
       CONSTANT HEAD =           0.0000         CONSTANT HEAD =           0.0000
               WELLS =           0.0000                 WELLS =           0.0000
     HEAD DEP BOUNDS =      103276.5391       HEAD DEP BOUNDS =         638.4958

            TOTAL IN =      138293.5938              TOTAL IN =        1039.3585

          OUT:                                     OUT:
          ----                                     ----
             STORAGE =           0.1866               STORAGE =           0.0000
       CONSTANT HEAD =           0.0000         CONSTANT HEAD =           0.0000
               WELLS =       37500.0000                 WELLS =         500.0000
     HEAD DEP BOUNDS =      100795.2266       HEAD DEP BOUNDS =         539.3568

           TOTAL OUT =      138295.4062             TOTAL OUT =        1039.3567

            IN - OUT =          -1.8125              IN - OUT =       1.8311E-03

 PERCENT DISCREPANCY =           0.00     PERCENT DISCREPANCY =           0.00






          TIME SUMMARY AT END OF TIME STEP  75 IN STRESS PERIOD    3
                    SECONDS     MINUTES      HOURS       DAYS        YEARS
                    -----------------------------------------------------------
   TIME STEP LENGTH  86400.      1440.0      24.000      1.0000     2.73785E-03
 STRESS PERIOD TIME 6.48000E+06 1.08000E+05  1800.0      75.000     0.20534    
         TOTAL TIME 1.52064E+07 2.53440E+05  4224.0      176.00     0.48186    
1
 
 SOLVING FOR HEAD 

 OUTPUT CONTROL FOR STRESS PERIOD    3   TIME STEP  76
    SAVE HEAD FOR ALL LAYERS
    SAVE DRAWDOWN FOR ALL LAYERS
    SAVE BUDGET
    PRINT HEAD FOR ALL LAYERS
    PRINT BUDGET
 UBDSV1 SAVING "         STORAGE" ON UNIT  53 AT TIME STEP 76, STRESS PERIOD   3
 UBDSV2 SAVING "   CONSTANT HEAD" ON UNIT  53 AT TIME STEP 76, STRESS PERIOD   3
 UBDSV1 SAVING "FLOW RIGHT FACE " ON UNIT  53 AT TIME STEP 76, STRESS PERIOD   3
 UBDSV1 SAVING "FLOW FRONT FACE " ON UNIT  53 AT TIME STEP 76, STRESS PERIOD   3
1
              HEAD IN LAYER   1 AT END OF TIME STEP  76 IN STRESS PERIOD    3
  ---------------------------------------------------------------------------

            1           2           3           4           5           6           7           8           9          10
           11          12          13          14          15          16          17          18          19          20
 ........................................................................................................................
   1    9.990       9.477       8.960       8.437       7.908       7.374       6.838       6.302       5.770       5.244    
        4.727       4.217       3.710       3.202       2.691       2.172       1.645       1.108      0.5635      1.1112E-02
   2    9.990       9.466       8.936       8.398       7.851       7.296       6.736       6.177       5.626       5.092    
        4.581       4.088       3.603       3.119       2.628       2.127       1.615       1.090      0.5548      1.0940E-02
   3    9.989       9.445       8.891       8.324       7.739       7.135       6.516       5.890       5.278       4.712    
        4.227       3.791       3.372       2.947       2.506       2.043       1.560       1.057      0.5393      1.0633E-02
   4    9.989       9.422       8.840       8.235       7.596       6.912       6.176       5.386       4.571       3.838    
        3.507       3.269       3.013       2.708       2.349       1.943       1.498       1.021      0.5227      1.0305E-02
   5    9.988       9.410       8.814       8.186       7.507       6.750       5.867       4.776       3.305       1.077    
        2.215       2.635       2.687       2.533       2.252       1.887       1.466       1.004      0.5148      1.0151E-02
   6    9.989       9.422       8.841       8.237       7.598       6.915       6.179       5.389       4.575       3.842    
        3.511       3.272       3.016       2.710       2.351       1.945       1.499       1.022      0.5230      1.0313E-02
   7    9.989       9.446       8.894       8.328       7.745       7.143       6.524       5.899       5.288       4.723    
        4.237       3.801       3.380       2.954       2.512       2.048       1.563       1.059      0.5404      1.0655E-02
   8    9.990       9.470       8.943       8.409       7.865       7.314       6.758       6.201       5.652       5.119    
        4.607       4.112       3.625       3.137       2.643       2.139       1.623       1.096      0.5575      1.0994E-02
   9    9.990       9.485       8.976       8.461       7.941       7.416       6.887       6.358       5.830       5.307    
        4.788       4.273       3.760       3.245       2.725       2.198       1.663       1.120      0.5695      1.1230E-02
  10    9.990       9.493       8.991       8.485       7.975       7.461       6.943       6.424       5.903       5.382    
        4.862       4.341       3.818       3.292       2.762       2.225       1.682       1.132      0.5753      1.1346E-02

 HEAD WILL BE SAVED ON UNIT   51 AT END OF TIME STEP  76, STRESS PERIOD    3

 DRAWDOWN WILL BE SAVED ON UNIT   52 AT END OF TIME STEP  76, STRESS PERIOD    3
1
  VOLUMETRIC BUDGET FOR ENTIRE MODEL AT END OF TIME STEP 76 IN STRESS PERIOD   3
  ------------------------------------------------------------------------------

     CUMULATIVE VOLUMES      L**3       RATES FOR THIS TIME STEP      L**3/T
     ------------------                 ------------------------

           IN:                                      IN:
           ---                                      ---
             STORAGE =       35415.7422               STORAGE =         398.6921
       CONSTANT HEAD =           0.0000         CONSTANT HEAD =           0.0000
               WELLS =           0.0000                 WELLS =           0.0000
     HEAD DEP BOUNDS =      103916.2344       HEAD DEP BOUNDS =         639.6960

            TOTAL IN =      139331.9688              TOTAL IN =        1038.3881

          OUT:                                     OUT:
          ----                                     ----
             STORAGE =           0.1866               STORAGE =           0.0000
       CONSTANT HEAD =           0.0000         CONSTANT HEAD =           0.0000
               WELLS =       38000.0000                 WELLS =         500.0000
     HEAD DEP BOUNDS =      101333.6172       HEAD DEP BOUNDS =         538.3915

           TOTAL OUT =      139333.8125             TOTAL OUT =        1038.3916

            IN - OUT =          -1.8438              IN - OUT =      -3.5400E-03

 PERCENT DISCREPANCY =           0.00     PERCENT DISCREPANCY =           0.00






          TIME SUMMARY AT END OF TIME STEP  76 IN STRESS PERIOD    3
                    SECONDS     MINUTES      HOURS       DAYS        YEARS
                    -----------------------------------------------------------
   TIME STEP LENGTH  86400.      1440.0      24.000      1.0000     2.73785E-03
 STRESS PERIOD TIME 6.56640E+06 1.09440E+05  1824.0      76.000     0.20808    
         TOTAL TIME 1.52928E+07 2.54880E+05  4248.0      177.00     0.48460    
1
 
 SOLVING FOR HEAD 

 OUTPUT CONTROL FOR STRESS PERIOD    3   TIME STEP  77
    SAVE HEAD FOR ALL LAYERS
    SAVE DRAWDOWN FOR ALL LAYERS
    SAVE BUDGET
    PRINT HEAD FOR ALL LAYERS
    PRINT BUDGET
 UBDSV1 SAVING "         STORAGE" ON UNIT  53 AT TIME STEP 77, STRESS PERIOD   3
 UBDSV2 SAVING "   CONSTANT HEAD" ON UNIT  53 AT TIME STEP 77, STRESS PERIOD   3
 UBDSV1 SAVING "FLOW RIGHT FACE " ON UNIT  53 AT TIME STEP 77, STRESS PERIOD   3
 UBDSV1 SAVING "FLOW FRONT FACE " ON UNIT  53 AT TIME STEP 77, STRESS PERIOD   3
1
              HEAD IN LAYER   1 AT END OF TIME STEP  77 IN STRESS PERIOD    3
  ---------------------------------------------------------------------------

            1           2           3           4           5           6           7           8           9          10
           11          12          13          14          15          16          17          18          19          20
 ........................................................................................................................
   1    9.990       9.477       8.958       8.434       7.905       7.370       6.833       6.297       5.764       5.239    
        4.722       4.212       3.705       3.198       2.687       2.169       1.642       1.107      0.5627      1.1097E-02
   2    9.990       9.465       8.934       8.395       7.847       7.291       6.731       6.171       5.620       5.086    
        4.575       4.082       3.598       3.114       2.624       2.124       1.612       1.088      0.5539      1.0921E-02
   3    9.989       9.444       8.889       8.320       7.734       7.130       6.509       5.882       5.270       4.705    
        4.219       3.783       3.365       2.941       2.500       2.039       1.556       1.055      0.5381      1.0611E-02
   4    9.989       9.420       8.838       8.231       7.591       6.906       6.168       5.377       4.562       3.829    
        3.498       3.260       3.005       2.701       2.343       1.938       1.494       1.019      0.5213      1.0279E-02
   5    9.988       9.409       8.811       8.182       7.502       6.743       5.859       4.767       3.295       1.067    
        2.205       2.625       2.678       2.525       2.245       1.882       1.461       1.001      0.5134      1.0123E-02
   6    9.989       9.421       8.839       8.233       7.593       6.909       6.171       5.381       4.566       3.833    
        3.502       3.263       3.008       2.703       2.345       1.940       1.495       1.019      0.5217      1.0287E-02
   7    9.989       9.445       8.892       8.325       7.740       7.137       6.518       5.892       5.281       4.715    
        4.230       3.793       3.373       2.948       2.507       2.044       1.560       1.057      0.5393      1.0634E-02
   8    9.990       9.469       8.941       8.406       7.862       7.310       6.753       6.196       5.646       5.113    
        4.602       4.107       3.620       3.133       2.640       2.136       1.621       1.094      0.5567      1.0978E-02
   9    9.990       9.485       8.975       8.459       7.938       7.413       6.884       6.354       5.827       5.303    
        4.784       4.270       3.757       3.242       2.722       2.196       1.662       1.119      0.5689      1.1219E-02
  10    9.990       9.492       8.990       8.484       7.973       7.458       6.941       6.421       5.900       5.379    
        4.859       4.338       3.815       3.290       2.760       2.224       1.681       1.132      0.5749      1.1337E-02

 HEAD WILL BE SAVED ON UNIT   51 AT END OF TIME STEP  77, STRESS PERIOD    3

 DRAWDOWN WILL BE SAVED ON UNIT   52 AT END OF TIME STEP  77, STRESS PERIOD    3
1
  VOLUMETRIC BUDGET FOR ENTIRE MODEL AT END OF TIME STEP 77 IN STRESS PERIOD   3
  ------------------------------------------------------------------------------

     CUMULATIVE VOLUMES      L**3       RATES FOR THIS TIME STEP      L**3/T
     ------------------                 ------------------------

           IN:                                      IN:
           ---                                      ---
             STORAGE =       35812.2773               STORAGE =         396.5334
       CONSTANT HEAD =           0.0000         CONSTANT HEAD =           0.0000
               WELLS =           0.0000                 WELLS =           0.0000
     HEAD DEP BOUNDS =      104557.1250       HEAD DEP BOUNDS =         640.8915

            TOTAL IN =      140369.4062              TOTAL IN =        1037.4249

          OUT:                                     OUT:
          ----                                     ----
             STORAGE =           0.1866               STORAGE =           0.0000
       CONSTANT HEAD =           0.0000         CONSTANT HEAD =           0.0000
               WELLS =       38500.0000                 WELLS =         500.0000
     HEAD DEP BOUNDS =      101871.0469       HEAD DEP BOUNDS =         537.4263

           TOTAL OUT =      140371.2344             TOTAL OUT =        1037.4263

            IN - OUT =          -1.8281              IN - OUT =      -1.3428E-03

 PERCENT DISCREPANCY =           0.00     PERCENT DISCREPANCY =           0.00






          TIME SUMMARY AT END OF TIME STEP  77 IN STRESS PERIOD    3
                    SECONDS     MINUTES      HOURS       DAYS        YEARS
                    -----------------------------------------------------------
   TIME STEP LENGTH  86400.      1440.0      24.000      1.0000     2.73785E-03
 STRESS PERIOD TIME 6.65280E+06 1.10880E+05  1848.0      77.000     0.21081    
         TOTAL TIME 1.53792E+07 2.56320E+05  4272.0      178.00     0.48734    
1
 
 SOLVING FOR HEAD 

 OUTPUT CONTROL FOR STRESS PERIOD    3   TIME STEP  78
    SAVE HEAD FOR ALL LAYERS
    SAVE DRAWDOWN FOR ALL LAYERS
    SAVE BUDGET
    PRINT HEAD FOR ALL LAYERS
    PRINT BUDGET
 UBDSV1 SAVING "         STORAGE" ON UNIT  53 AT TIME STEP 78, STRESS PERIOD   3
 UBDSV2 SAVING "   CONSTANT HEAD" ON UNIT  53 AT TIME STEP 78, STRESS PERIOD   3
 UBDSV1 SAVING "FLOW RIGHT FACE " ON UNIT  53 AT TIME STEP 78, STRESS PERIOD   3
 UBDSV1 SAVING "FLOW FRONT FACE " ON UNIT  53 AT TIME STEP 78, STRESS PERIOD   3
1
              HEAD IN LAYER   1 AT END OF TIME STEP  78 IN STRESS PERIOD    3
  ---------------------------------------------------------------------------

            1           2           3           4           5           6           7           8           9          10
           11          12          13          14          15          16          17          18          19          20
 ........................................................................................................................
   1    9.990       9.476       8.957       8.432       7.901       7.366       6.829       6.292       5.759       5.233    
        4.716       4.206       3.700       3.194       2.683       2.166       1.640       1.105      0.5620      1.1081E-02
   2    9.990       9.464       8.932       8.392       7.843       7.287       6.726       6.165       5.613       5.080    
        4.568       4.076       3.592       3.109       2.620       2.120       1.609       1.086      0.5530      1.0903E-02
   3    9.989       9.443       8.886       8.317       7.729       7.124       6.503       5.875       5.262       4.697    
        4.211       3.776       3.358       2.935       2.495       2.035       1.553       1.053      0.5370      1.0588E-02
   4    9.989       9.419       8.835       8.227       7.585       6.899       6.161       5.369       4.553       3.820    
        3.489       3.251       2.997       2.693       2.337       1.933       1.490       1.016      0.5200      1.0252E-02
   5    9.988       9.407       8.808       8.178       7.496       6.736       5.852       4.758       3.285       1.057    
        2.195       2.616       2.670       2.517       2.239       1.877       1.457      0.9982      0.5121      1.0096E-02
   6    9.989       9.420       8.836       8.229       7.588       6.902       6.164       5.373       4.557       3.824    
        3.493       3.255       3.000       2.696       2.339       1.935       1.491       1.017      0.5204      1.0261E-02
   7    9.989       9.444       8.890       8.322       7.736       7.132       6.512       5.886       5.273       4.708    
        4.222       3.786       3.367       2.943       2.502       2.040       1.557       1.055      0.5382      1.0612E-02
   8    9.990       9.468       8.940       8.404       7.859       7.306       6.748       6.191       5.641       5.108    
        4.596       4.101       3.615       3.129       2.636       2.133       1.619       1.092      0.5559      1.0962E-02
   9    9.990       9.484       8.973       8.457       7.936       7.410       6.881       6.351       5.823       5.299    
        4.780       4.266       3.753       3.238       2.719       2.194       1.660       1.118      0.5684      1.1208E-02
  10    9.990       9.492       8.989       8.482       7.971       7.456       6.938       6.418       5.897       5.376    
        4.855       4.335       3.812       3.287       2.757       2.222       1.680       1.131      0.5745      1.1328E-02

 HEAD WILL BE SAVED ON UNIT   51 AT END OF TIME STEP  78, STRESS PERIOD    3

 DRAWDOWN WILL BE SAVED ON UNIT   52 AT END OF TIME STEP  78, STRESS PERIOD    3
1
  VOLUMETRIC BUDGET FOR ENTIRE MODEL AT END OF TIME STEP 78 IN STRESS PERIOD   3
  ------------------------------------------------------------------------------

     CUMULATIVE VOLUMES      L**3       RATES FOR THIS TIME STEP      L**3/T
     ------------------                 ------------------------

           IN:                                      IN:
           ---                                      ---
             STORAGE =       36206.6484               STORAGE =         394.3698
       CONSTANT HEAD =           0.0000         CONSTANT HEAD =           0.0000
               WELLS =           0.0000                 WELLS =           0.0000
     HEAD DEP BOUNDS =      105199.2109       HEAD DEP BOUNDS =         642.0863

            TOTAL IN =      141405.8594              TOTAL IN =        1036.4562

          OUT:                                     OUT:
          ----                                     ----
             STORAGE =           0.1866               STORAGE =           0.0000
       CONSTANT HEAD =           0.0000         CONSTANT HEAD =           0.0000
               WELLS =       39000.0000                 WELLS =         500.0000
     HEAD DEP BOUNDS =      102407.5000       HEAD DEP BOUNDS =         536.4567

           TOTAL OUT =      141407.6875             TOTAL OUT =        1036.4567

            IN - OUT =          -1.8281              IN - OUT =      -4.8828E-04

 PERCENT DISCREPANCY =           0.00     PERCENT DISCREPANCY =           0.00






          TIME SUMMARY AT END OF TIME STEP  78 IN STRESS PERIOD    3
                    SECONDS     MINUTES      HOURS       DAYS        YEARS
                    -----------------------------------------------------------
   TIME STEP LENGTH  86400.      1440.0      24.000      1.0000     2.73785E-03
 STRESS PERIOD TIME 6.73920E+06 1.12320E+05  1872.0      78.000     0.21355    
         TOTAL TIME 1.54656E+07 2.57760E+05  4296.0      179.00     0.49008    
1
 
 SOLVING FOR HEAD 

 OUTPUT CONTROL FOR STRESS PERIOD    3   TIME STEP  79
    SAVE HEAD FOR ALL LAYERS
    SAVE DRAWDOWN FOR ALL LAYERS
    SAVE BUDGET
    PRINT HEAD FOR ALL LAYERS
    PRINT BUDGET
 UBDSV1 SAVING "         STORAGE" ON UNIT  53 AT TIME STEP 79, STRESS PERIOD   3
 UBDSV2 SAVING "   CONSTANT HEAD" ON UNIT  53 AT TIME STEP 79, STRESS PERIOD   3
 UBDSV1 SAVING "FLOW RIGHT FACE " ON UNIT  53 AT TIME STEP 79, STRESS PERIOD   3
 UBDSV1 SAVING "FLOW FRONT FACE " ON UNIT  53 AT TIME STEP 79, STRESS PERIOD   3
1
              HEAD IN LAYER   1 AT END OF TIME STEP  79 IN STRESS PERIOD    3
  ---------------------------------------------------------------------------

            1           2           3           4           5           6           7           8           9          10
           11          12          13          14          15          16          17          18          19          20
 ........................................................................................................................
   1    9.990       9.475       8.955       8.429       7.898       7.362       6.824       6.287       5.754       5.228    
        4.711       4.201       3.695       3.189       2.679       2.163       1.638       1.104      0.5612      1.1065E-02
   2    9.990       9.463       8.930       8.389       7.839       7.282       6.720       6.159       5.607       5.073    
        4.562       4.069       3.586       3.104       2.615       2.117       1.607       1.085      0.5520      1.0885E-02
   3    9.989       9.441       8.884       8.313       7.725       7.118       6.496       5.868       5.255       4.689    
        4.204       3.768       3.351       2.928       2.490       2.030       1.550       1.050      0.5359      1.0566E-02
   4    9.989       9.418       8.832       8.223       7.580       6.893       6.153       5.361       4.544       3.811    
        3.480       3.242       2.989       2.686       2.331       1.928       1.486       1.013      0.5187      1.0226E-02
   5    9.988       9.406       8.806       8.173       7.491       6.729       5.844       4.749       3.276       1.046    
        2.185       2.606       2.661       2.510       2.232       1.871       1.453      0.9955      0.5107      1.0068E-02
   6    9.989       9.418       8.834       8.225       7.583       6.896       6.157       5.365       4.548       3.815    
        3.484       3.246       2.992       2.689       2.333       1.930       1.487       1.014      0.5191      1.0235E-02
   7    9.989       9.443       8.888       8.318       7.732       7.127       6.506       5.879       5.266       4.701    
        4.215       3.779       3.360       2.937       2.497       2.036       1.554       1.053      0.5372      1.0591E-02
   8    9.990       9.467       8.938       8.401       7.856       7.302       6.744       6.186       5.636       5.102    
        4.591       4.096       3.610       3.124       2.632       2.130       1.616       1.091      0.5551      1.0946E-02
   9    9.990       9.483       8.972       8.455       7.934       7.407       6.877       6.347       5.819       5.295    
        4.776       4.262       3.749       3.235       2.717       2.191       1.658       1.117      0.5678      1.1196E-02
  10    9.990       9.491       8.988       8.481       7.969       7.454       6.935       6.415       5.894       5.373    
        4.852       4.332       3.810       3.285       2.755       2.220       1.679       1.130      0.5740      1.1320E-02

 HEAD WILL BE SAVED ON UNIT   51 AT END OF TIME STEP  79, STRESS PERIOD    3

 DRAWDOWN WILL BE SAVED ON UNIT   52 AT END OF TIME STEP  79, STRESS PERIOD    3
1
  VOLUMETRIC BUDGET FOR ENTIRE MODEL AT END OF TIME STEP 79 IN STRESS PERIOD   3
  ------------------------------------------------------------------------------

     CUMULATIVE VOLUMES      L**3       RATES FOR THIS TIME STEP      L**3/T
     ------------------                 ------------------------

           IN:                                      IN:
           ---                                      ---
             STORAGE =       36598.8594               STORAGE =         392.2118
       CONSTANT HEAD =           0.0000         CONSTANT HEAD =           0.0000
               WELLS =           0.0000                 WELLS =           0.0000
     HEAD DEP BOUNDS =      105842.4844       HEAD DEP BOUNDS =         643.2762

            TOTAL IN =      142441.3438              TOTAL IN =        1035.4880

          OUT:                                     OUT:
          ----                                     ----
             STORAGE =           0.1866               STORAGE =           0.0000
       CONSTANT HEAD =           0.0000         CONSTANT HEAD =           0.0000
               WELLS =       39500.0000                 WELLS =         500.0000
     HEAD DEP BOUNDS =      102942.9922       HEAD DEP BOUNDS =         535.4896

           TOTAL OUT =      142443.1875             TOTAL OUT =        1035.4895

            IN - OUT =          -1.8438              IN - OUT =      -1.4648E-03

 PERCENT DISCREPANCY =           0.00     PERCENT DISCREPANCY =           0.00






          TIME SUMMARY AT END OF TIME STEP  79 IN STRESS PERIOD    3
                    SECONDS     MINUTES      HOURS       DAYS        YEARS
                    -----------------------------------------------------------
   TIME STEP LENGTH  86400.      1440.0      24.000      1.0000     2.73785E-03
 STRESS PERIOD TIME 6.82560E+06 1.13760E+05  1896.0      79.000     0.21629    
         TOTAL TIME 1.55520E+07 2.59200E+05  4320.0      180.00     0.49281    
1
 
 SOLVING FOR HEAD 

 OUTPUT CONTROL FOR STRESS PERIOD    3   TIME STEP  80
    SAVE HEAD FOR ALL LAYERS
    SAVE DRAWDOWN FOR ALL LAYERS
    SAVE BUDGET
    PRINT HEAD FOR ALL LAYERS
    PRINT BUDGET
 UBDSV1 SAVING "         STORAGE" ON UNIT  53 AT TIME STEP 80, STRESS PERIOD   3
 UBDSV2 SAVING "   CONSTANT HEAD" ON UNIT  53 AT TIME STEP 80, STRESS PERIOD   3
 UBDSV1 SAVING "FLOW RIGHT FACE " ON UNIT  53 AT TIME STEP 80, STRESS PERIOD   3
 UBDSV1 SAVING "FLOW FRONT FACE " ON UNIT  53 AT TIME STEP 80, STRESS PERIOD   3
1
              HEAD IN LAYER   1 AT END OF TIME STEP  80 IN STRESS PERIOD    3
  ---------------------------------------------------------------------------

            1           2           3           4           5           6           7           8           9          10
           11          12          13          14          15          16          17          18          19          20
 ........................................................................................................................
   1    9.990       9.474       8.953       8.427       7.895       7.358       6.820       6.282       5.748       5.222    
        4.705       4.196       3.690       3.185       2.676       2.160       1.635       1.102      0.5604      1.1049E-02
   2    9.989       9.462       8.928       8.386       7.836       7.278       6.715       6.153       5.601       5.067    
        4.556       4.063       3.581       3.099       2.611       2.113       1.604       1.083      0.5511      1.0866E-02
   3    9.989       9.440       8.882       8.310       7.720       7.113       6.490       5.861       5.247       4.681    
        4.196       3.761       3.344       2.922       2.485       2.026       1.547       1.048      0.5347      1.0543E-02
   4    9.989       9.416       8.830       8.219       7.575       6.887       6.146       5.353       4.535       3.801    
        3.471       3.234       2.981       2.679       2.325       1.923       1.482       1.011      0.5174      1.0200E-02
   5    9.988       9.405       8.803       8.169       7.485       6.723       5.836       4.741       3.266       1.036    
        2.175       2.597       2.653       2.502       2.226       1.866       1.449      0.9928      0.5093      1.0041E-02
   6    9.989       9.417       8.831       8.221       7.578       6.890       6.149       5.357       4.540       3.806    
        3.475       3.238       2.984       2.682       2.327       1.925       1.484       1.012      0.5179      1.0210E-02
   7    9.989       9.442       8.885       8.315       7.727       7.122       6.500       5.872       5.259       4.693    
        4.208       3.772       3.354       2.931       2.492       2.032       1.551       1.051      0.5361      1.0570E-02
   8    9.990       9.466       8.936       8.399       7.852       7.298       6.739       6.181       5.630       5.097    
        4.585       4.091       3.605       3.120       2.628       2.127       1.614       1.089      0.5543      1.0930E-02
   9    9.990       9.483       8.971       8.454       7.931       7.404       6.874       6.343       5.815       5.291    
        4.772       4.258       3.746       3.232       2.714       2.189       1.657       1.116      0.5672      1.1185E-02
  10    9.990       9.491       8.987       8.480       7.967       7.451       6.933       6.412       5.891       5.370    
        4.849       4.329       3.807       3.282       2.753       2.219       1.677       1.129      0.5735      1.1310E-02

 HEAD WILL BE SAVED ON UNIT   51 AT END OF TIME STEP  80, STRESS PERIOD    3

 DRAWDOWN WILL BE SAVED ON UNIT   52 AT END OF TIME STEP  80, STRESS PERIOD    3
1
  VOLUMETRIC BUDGET FOR ENTIRE MODEL AT END OF TIME STEP 80 IN STRESS PERIOD   3
  ------------------------------------------------------------------------------

     CUMULATIVE VOLUMES      L**3       RATES FOR THIS TIME STEP      L**3/T
     ------------------                 ------------------------

           IN:                                      IN:
           ---                                      ---
             STORAGE =       36988.9219               STORAGE =         390.0636
       CONSTANT HEAD =           0.0000         CONSTANT HEAD =           0.0000
               WELLS =           0.0000                 WELLS =           0.0000
     HEAD DEP BOUNDS =      106486.9453       HEAD DEP BOUNDS =         644.4577

            TOTAL IN =      143475.8750              TOTAL IN =        1034.5214

          OUT:                                     OUT:
          ----                                     ----
             STORAGE =           0.1866               STORAGE =           0.0000
       CONSTANT HEAD =           0.0000         CONSTANT HEAD =           0.0000
               WELLS =       40000.0000                 WELLS =         500.0000
     HEAD DEP BOUNDS =      103477.5156       HEAD DEP BOUNDS =         534.5208

           TOTAL OUT =      143477.7031             TOTAL OUT =        1034.5208

            IN - OUT =          -1.8281              IN - OUT =       6.1035E-04

 PERCENT DISCREPANCY =           0.00     PERCENT DISCREPANCY =           0.00






          TIME SUMMARY AT END OF TIME STEP  80 IN STRESS PERIOD    3
                    SECONDS     MINUTES      HOURS       DAYS        YEARS
                    -----------------------------------------------------------
   TIME STEP LENGTH  86400.      1440.0      24.000      1.0000     2.73785E-03
 STRESS PERIOD TIME 6.91200E+06 1.15200E+05  1920.0      80.000     0.21903    
         TOTAL TIME 1.56384E+07 2.60640E+05  4344.0      181.00     0.49555    
1
 
 SOLVING FOR HEAD 

 OUTPUT CONTROL FOR STRESS PERIOD    3   TIME STEP  81
    SAVE HEAD FOR ALL LAYERS
    SAVE DRAWDOWN FOR ALL LAYERS
    SAVE BUDGET
    PRINT HEAD FOR ALL LAYERS
    PRINT BUDGET
 UBDSV1 SAVING "         STORAGE" ON UNIT  53 AT TIME STEP 81, STRESS PERIOD   3
 UBDSV2 SAVING "   CONSTANT HEAD" ON UNIT  53 AT TIME STEP 81, STRESS PERIOD   3
 UBDSV1 SAVING "FLOW RIGHT FACE " ON UNIT  53 AT TIME STEP 81, STRESS PERIOD   3
 UBDSV1 SAVING "FLOW FRONT FACE " ON UNIT  53 AT TIME STEP 81, STRESS PERIOD   3
1
              HEAD IN LAYER   1 AT END OF TIME STEP  81 IN STRESS PERIOD    3
  ---------------------------------------------------------------------------

            1           2           3           4           5           6           7           8           9          10
           11          12          13          14          15          16          17          18          19          20
 ........................................................................................................................
   1    9.990       9.473       8.951       8.424       7.891       7.354       6.815       6.277       5.743       5.217    
        4.700       4.191       3.686       3.181       2.672       2.157       1.633       1.101      0.5595      1.1033E-02
   2    9.989       9.461       8.926       8.383       7.832       7.273       6.710       6.148       5.595       5.060    
        4.549       4.057       3.575       3.094       2.607       2.110       1.601       1.081      0.5502      1.0848E-02
   3    9.989       9.439       8.880       8.306       7.716       7.107       6.484       5.854       5.240       4.673    
        4.188       3.754       3.337       2.916       2.479       2.022       1.543       1.046      0.5336      1.0521E-02
   4    9.989       9.415       8.827       8.215       7.570       6.880       6.139       5.345       4.527       3.793    
        3.462       3.225       2.973       2.672       2.319       1.918       1.478       1.008      0.5161      1.0174E-02
   5    9.988       9.403       8.800       8.165       7.480       6.716       5.828       4.732       3.257       1.026    
        2.166       2.588       2.644       2.495       2.219       1.861       1.445      0.9901      0.5079      1.0014E-02
   6    9.989       9.416       8.828       8.217       7.573       6.884       6.142       5.349       4.531       3.797    
        3.466       3.229       2.976       2.675       2.321       1.920       1.480       1.009      0.5166      1.0184E-02
   7    9.989       9.441       8.883       8.312       7.723       7.116       6.494       5.866       5.252       4.686    
        4.201       3.765       3.347       2.925       2.487       2.028       1.548       1.049      0.5350      1.0549E-02
   8    9.990       9.465       8.935       8.396       7.849       7.294       6.735       6.176       5.625       5.091    
        4.580       4.086       3.600       3.115       2.625       2.124       1.611       1.088      0.5535      1.0914E-02
   9    9.990       9.482       8.970       8.452       7.929       7.401       6.871       6.340       5.811       5.287    
        4.768       4.254       3.742       3.229       2.711       2.187       1.655       1.115      0.5666      1.1173E-02
  10    9.990       9.490       8.986       8.478       7.965       7.449       6.930       6.409       5.888       5.367    
        4.846       4.326       3.804       3.280       2.751       2.217       1.676       1.128      0.5731      1.1301E-02

 HEAD WILL BE SAVED ON UNIT   51 AT END OF TIME STEP  81, STRESS PERIOD    3

 DRAWDOWN WILL BE SAVED ON UNIT   52 AT END OF TIME STEP  81, STRESS PERIOD    3
1
  VOLUMETRIC BUDGET FOR ENTIRE MODEL AT END OF TIME STEP 81 IN STRESS PERIOD   3
  ------------------------------------------------------------------------------

     CUMULATIVE VOLUMES      L**3       RATES FOR THIS TIME STEP      L**3/T
     ------------------                 ------------------------

           IN:                                      IN:
           ---                                      ---
             STORAGE =       37376.8359               STORAGE =         387.9152
       CONSTANT HEAD =           0.0000         CONSTANT HEAD =           0.0000
               WELLS =           0.0000                 WELLS =           0.0000
     HEAD DEP BOUNDS =      107132.5781       HEAD DEP BOUNDS =         645.6305

            TOTAL IN =      144509.4062              TOTAL IN =        1033.5457

          OUT:                                     OUT:
          ----                                     ----
             STORAGE =           0.1866               STORAGE =           0.0000
       CONSTANT HEAD =           0.0000         CONSTANT HEAD =           0.0000
               WELLS =       40500.0000                 WELLS =         500.0000
     HEAD DEP BOUNDS =      104011.0703       HEAD DEP BOUNDS =         533.5519

           TOTAL OUT =      144511.2500             TOTAL OUT =        1033.5519

            IN - OUT =          -1.8438              IN - OUT =      -6.2256E-03

 PERCENT DISCREPANCY =           0.00     PERCENT DISCREPANCY =           0.00






          TIME SUMMARY AT END OF TIME STEP  81 IN STRESS PERIOD    3
                    SECONDS     MINUTES      HOURS       DAYS        YEARS
                    -----------------------------------------------------------
   TIME STEP LENGTH  86400.      1440.0      24.000      1.0000     2.73785E-03
 STRESS PERIOD TIME 6.99840E+06 1.16640E+05  1944.0      81.000     0.22177    
         TOTAL TIME 1.57248E+07 2.62080E+05  4368.0      182.00     0.49829    
1
 
 SOLVING FOR HEAD 

 OUTPUT CONTROL FOR STRESS PERIOD    3   TIME STEP  82
    SAVE HEAD FOR ALL LAYERS
    SAVE DRAWDOWN FOR ALL LAYERS
    SAVE BUDGET
    PRINT HEAD FOR ALL LAYERS
    PRINT BUDGET
 UBDSV1 SAVING "         STORAGE" ON UNIT  53 AT TIME STEP 82, STRESS PERIOD   3
 UBDSV2 SAVING "   CONSTANT HEAD" ON UNIT  53 AT TIME STEP 82, STRESS PERIOD   3
 UBDSV1 SAVING "FLOW RIGHT FACE " ON UNIT  53 AT TIME STEP 82, STRESS PERIOD   3
 UBDSV1 SAVING "FLOW FRONT FACE " ON UNIT  53 AT TIME STEP 82, STRESS PERIOD   3
1
              HEAD IN LAYER   1 AT END OF TIME STEP  82 IN STRESS PERIOD    3
  ---------------------------------------------------------------------------

            1           2           3           4           5           6           7           8           9          10
           11          12          13          14          15          16          17          18          19          20
 ........................................................................................................................
   1    9.990       9.472       8.950       8.422       7.888       7.350       6.810       6.272       5.738       5.211    
        4.694       4.185       3.681       3.176       2.668       2.153       1.631       1.099      0.5587      1.1017E-02
   2    9.989       9.460       8.924       8.380       7.828       7.268       6.704       6.142       5.589       5.054    
        4.543       4.051       3.569       3.089       2.602       2.106       1.599       1.079      0.5492      1.0829E-02
   3    9.989       9.438       8.877       8.303       7.711       7.102       6.477       5.847       5.232       4.666    
        4.181       3.746       3.330       2.910       2.474       2.017       1.540       1.044      0.5325      1.0498E-02
   4    9.989       9.414       8.824       8.211       7.565       6.874       6.131       5.337       4.518       3.784    
        3.453       3.217       2.965       2.665       2.313       1.913       1.475       1.006      0.5148      1.0149E-02
   5    9.988       9.402       8.797       8.161       7.475       6.710       5.821       4.724       3.248       1.017    
        2.156       2.579       2.636       2.487       2.213       1.856       1.441      0.9874      0.5066      9.9868E-03
   6    9.989       9.414       8.826       8.214       7.568       6.878       6.135       5.341       4.523       3.788    
        3.458       3.221       2.969       2.668       2.315       1.915       1.476       1.007      0.5153      1.0159E-02
   7    9.989       9.440       8.881       8.309       7.719       7.111       6.488       5.859       5.245       4.679    
        4.193       3.758       3.341       2.919       2.482       2.024       1.545       1.047      0.5340      1.0528E-02
   8    9.990       9.464       8.933       8.394       7.846       7.291       6.730       6.171       5.620       5.086    
        4.574       4.080       3.595       3.111       2.621       2.121       1.609       1.086      0.5527      1.0897E-02
   9    9.990       9.482       8.968       8.450       7.926       7.398       6.867       6.336       5.807       5.283    
        4.764       4.251       3.739       3.226       2.708       2.185       1.653       1.114      0.5660      1.1161E-02
  10    9.990       9.490       8.985       8.477       7.964       7.447       6.927       6.406       5.884       5.363    
        4.843       4.323       3.801       3.277       2.749       2.215       1.675       1.127      0.5726      1.1292E-02

 HEAD WILL BE SAVED ON UNIT   51 AT END OF TIME STEP  82, STRESS PERIOD    3

 DRAWDOWN WILL BE SAVED ON UNIT   52 AT END OF TIME STEP  82, STRESS PERIOD    3
1
  VOLUMETRIC BUDGET FOR ENTIRE MODEL AT END OF TIME STEP 82 IN STRESS PERIOD   3
  ------------------------------------------------------------------------------

     CUMULATIVE VOLUMES      L**3       RATES FOR THIS TIME STEP      L**3/T
     ------------------                 ------------------------

           IN:                                      IN:
           ---                                      ---
             STORAGE =       37762.6133               STORAGE =         385.7780
       CONSTANT HEAD =           0.0000         CONSTANT HEAD =           0.0000
               WELLS =           0.0000                 WELLS =           0.0000
     HEAD DEP BOUNDS =      107779.3828       HEAD DEP BOUNDS =         646.8054

            TOTAL IN =      145542.0000              TOTAL IN =        1032.5835

          OUT:                                     OUT:
          ----                                     ----
             STORAGE =           0.1866               STORAGE =           0.0000
       CONSTANT HEAD =           0.0000         CONSTANT HEAD =           0.0000
               WELLS =       41000.0000                 WELLS =         500.0000
     HEAD DEP BOUNDS =      104543.6562       HEAD DEP BOUNDS =         532.5840

           TOTAL OUT =      145543.8438             TOTAL OUT =        1032.5840

            IN - OUT =          -1.8438              IN - OUT =      -4.8828E-04

 PERCENT DISCREPANCY =           0.00     PERCENT DISCREPANCY =           0.00






          TIME SUMMARY AT END OF TIME STEP  82 IN STRESS PERIOD    3
                    SECONDS     MINUTES      HOURS       DAYS        YEARS
                    -----------------------------------------------------------
   TIME STEP LENGTH  86400.      1440.0      24.000      1.0000     2.73785E-03
 STRESS PERIOD TIME 7.08480E+06 1.18080E+05  1968.0      82.000     0.22450    
         TOTAL TIME 1.58112E+07 2.63520E+05  4392.0      183.00     0.50103    
1
 
 SOLVING FOR HEAD 

 OUTPUT CONTROL FOR STRESS PERIOD    3   TIME STEP  83
    SAVE HEAD FOR ALL LAYERS
    SAVE DRAWDOWN FOR ALL LAYERS
    SAVE BUDGET
    PRINT HEAD FOR ALL LAYERS
    PRINT BUDGET
 UBDSV1 SAVING "         STORAGE" ON UNIT  53 AT TIME STEP 83, STRESS PERIOD   3
 UBDSV2 SAVING "   CONSTANT HEAD" ON UNIT  53 AT TIME STEP 83, STRESS PERIOD   3
 UBDSV1 SAVING "FLOW RIGHT FACE " ON UNIT  53 AT TIME STEP 83, STRESS PERIOD   3
 UBDSV1 SAVING "FLOW FRONT FACE " ON UNIT  53 AT TIME STEP 83, STRESS PERIOD   3
1
              HEAD IN LAYER   1 AT END OF TIME STEP  83 IN STRESS PERIOD    3
  ---------------------------------------------------------------------------

            1           2           3           4           5           6           7           8           9          10
           11          12          13          14          15          16          17          18          19          20
 ........................................................................................................................
   1    9.990       9.471       8.948       8.419       7.885       7.346       6.806       6.267       5.732       5.206    
        4.689       4.180       3.676       3.172       2.664       2.150       1.628       1.097      0.5579      1.1001E-02
   2    9.989       9.459       8.922       8.377       7.824       7.264       6.699       6.136       5.583       5.048    
        4.537       4.045       3.564       3.084       2.598       2.103       1.596       1.077      0.5483      1.0810E-02
   3    9.989       9.437       8.875       8.299       7.707       7.097       6.471       5.840       5.225       4.658    
        4.173       3.739       3.323       2.904       2.469       2.013       1.537       1.042      0.5314      1.0476E-02
   4    9.989       9.412       8.822       8.208       7.560       6.868       6.124       5.329       4.510       3.775    
        3.444       3.208       2.957       2.658       2.307       1.908       1.471       1.003      0.5135      1.0123E-02
   5    9.988       9.400       8.795       8.157       7.469       6.703       5.813       4.715       3.239       1.007    
        2.147       2.570       2.628       2.480       2.207       1.851       1.438      0.9848      0.5052      9.9600E-03
   6    9.989       9.413       8.823       8.210       7.563       6.872       6.128       5.333       4.514       3.780    
        3.449       3.213       2.961       2.661       2.309       1.910       1.472       1.004      0.5140      1.0134E-02
   7    9.989       9.439       8.879       8.305       7.715       7.106       6.482       5.853       5.238       4.672    
        4.186       3.752       3.335       2.914       2.477       2.020       1.541       1.045      0.5329      1.0506E-02
   8    9.990       9.464       8.931       8.391       7.843       7.287       6.726       6.166       5.614       5.080    
        4.569       4.075       3.591       3.107       2.617       2.118       1.607       1.084      0.5519      1.0881E-02
   9    9.990       9.481       8.967       8.448       7.924       7.395       6.864       6.332       5.803       5.279    
        4.760       4.247       3.735       3.223       2.706       2.182       1.652       1.112      0.5654      1.1149E-02
  10    9.990       9.489       8.984       8.475       7.962       7.444       6.925       6.403       5.881       5.360    
        4.840       4.320       3.798       3.275       2.747       2.213       1.673       1.126      0.5721      1.1282E-02

 HEAD WILL BE SAVED ON UNIT   51 AT END OF TIME STEP  83, STRESS PERIOD    3

 DRAWDOWN WILL BE SAVED ON UNIT   52 AT END OF TIME STEP  83, STRESS PERIOD    3
1
  VOLUMETRIC BUDGET FOR ENTIRE MODEL AT END OF TIME STEP 83 IN STRESS PERIOD   3
  ------------------------------------------------------------------------------

     CUMULATIVE VOLUMES      L**3       RATES FOR THIS TIME STEP      L**3/T
     ------------------                 ------------------------

           IN:                                      IN:
           ---                                      ---
             STORAGE =       38146.2578               STORAGE =         383.6428
       CONSTANT HEAD =           0.0000         CONSTANT HEAD =           0.0000
               WELLS =           0.0000                 WELLS =           0.0000
     HEAD DEP BOUNDS =      108427.3594       HEAD DEP BOUNDS =         647.9749

            TOTAL IN =      146573.6250              TOTAL IN =        1031.6177

          OUT:                                     OUT:
          ----                                     ----
             STORAGE =           0.1866               STORAGE =           0.0000
       CONSTANT HEAD =           0.0000         CONSTANT HEAD =           0.0000
               WELLS =       41500.0000                 WELLS =         500.0000
     HEAD DEP BOUNDS =      105075.2734       HEAD DEP BOUNDS =         531.6156

           TOTAL OUT =      146575.4688             TOTAL OUT =        1031.6156

            IN - OUT =          -1.8438              IN - OUT =       2.0752E-03

 PERCENT DISCREPANCY =           0.00     PERCENT DISCREPANCY =           0.00






          TIME SUMMARY AT END OF TIME STEP  83 IN STRESS PERIOD    3
                    SECONDS     MINUTES      HOURS       DAYS        YEARS
                    -----------------------------------------------------------
   TIME STEP LENGTH  86400.      1440.0      24.000      1.0000     2.73785E-03
 STRESS PERIOD TIME 7.17120E+06 1.19520E+05  1992.0      83.000     0.22724    
         TOTAL TIME 1.58976E+07 2.64960E+05  4416.0      184.00     0.50376    
1
 
 SOLVING FOR HEAD 

 OUTPUT CONTROL FOR STRESS PERIOD    3   TIME STEP  84
    SAVE HEAD FOR ALL LAYERS
    SAVE DRAWDOWN FOR ALL LAYERS
    SAVE BUDGET
    PRINT HEAD FOR ALL LAYERS
    PRINT BUDGET
 UBDSV1 SAVING "         STORAGE" ON UNIT  53 AT TIME STEP 84, STRESS PERIOD   3
 UBDSV2 SAVING "   CONSTANT HEAD" ON UNIT  53 AT TIME STEP 84, STRESS PERIOD   3
 UBDSV1 SAVING "FLOW RIGHT FACE " ON UNIT  53 AT TIME STEP 84, STRESS PERIOD   3
 UBDSV1 SAVING "FLOW FRONT FACE " ON UNIT  53 AT TIME STEP 84, STRESS PERIOD   3
1
              HEAD IN LAYER   1 AT END OF TIME STEP  84 IN STRESS PERIOD    3
  ---------------------------------------------------------------------------

            1           2           3           4           5           6           7           8           9          10
           11          12          13          14          15          16          17          18          19          20
 ........................................................................................................................
   1    9.990       9.471       8.946       8.417       7.881       7.342       6.801       6.261       5.727       5.200    
        4.683       4.175       3.671       3.167       2.660       2.147       1.626       1.096      0.5571      1.0984E-02
   2    9.989       9.458       8.920       8.375       7.821       7.259       6.694       6.130       5.576       5.042    
        4.531       4.039       3.558       3.078       2.594       2.099       1.593       1.075      0.5473      1.0791E-02
   3    9.989       9.436       8.873       8.296       7.703       7.091       6.465       5.834       5.218       4.651    
        4.166       3.732       3.317       2.898       2.464       2.009       1.534       1.039      0.5302      1.0454E-02
   4    9.989       9.411       8.819       8.204       7.555       6.862       6.117       5.321       4.501       3.766    
        3.436       3.200       2.949       2.651       2.301       1.903       1.467       1.001      0.5122      1.0097E-02
   5    9.988       9.399       8.792       8.153       7.464       6.697       5.806       4.707       3.230      0.9974    
        2.138       2.562       2.620       2.473       2.200       1.845       1.434      0.9821      0.5039      9.9333E-03
   6    9.989       9.412       8.821       8.206       7.558       6.866       6.121       5.326       4.506       3.771    
        3.441       3.205       2.954       2.655       2.304       1.906       1.469       1.002      0.5128      1.0109E-02
   7    9.989       9.438       8.877       8.302       7.711       7.101       6.477       5.846       5.232       4.665    
        4.179       3.745       3.328       2.908       2.472       2.016       1.538       1.043      0.5318      1.0485E-02
   8    9.990       9.463       8.930       8.389       7.839       7.283       6.721       6.161       5.609       5.075    
        4.563       4.070       3.586       3.102       2.613       2.114       1.604       1.083      0.5510      1.0865E-02
   9    9.990       9.480       8.966       8.446       7.921       7.392       6.861       6.329       5.799       5.275    
        4.756       4.243       3.732       3.219       2.703       2.180       1.650       1.111      0.5648      1.1137E-02
  10    9.990       9.489       8.983       8.474       7.960       7.442       6.922       6.400       5.878       5.357    
        4.836       4.316       3.795       3.272       2.744       2.211       1.672       1.125      0.5717      1.1273E-02

 HEAD WILL BE SAVED ON UNIT   51 AT END OF TIME STEP  84, STRESS PERIOD    3

 DRAWDOWN WILL BE SAVED ON UNIT   52 AT END OF TIME STEP  84, STRESS PERIOD    3
1
  VOLUMETRIC BUDGET FOR ENTIRE MODEL AT END OF TIME STEP 84 IN STRESS PERIOD   3
  ------------------------------------------------------------------------------

     CUMULATIVE VOLUMES      L**3       RATES FOR THIS TIME STEP      L**3/T
     ------------------                 ------------------------

           IN:                                      IN:
           ---                                      ---
             STORAGE =       38527.7734               STORAGE =         381.5141
       CONSTANT HEAD =           0.0000         CONSTANT HEAD =           0.0000
               WELLS =           0.0000                 WELLS =           0.0000
     HEAD DEP BOUNDS =      109076.4922       HEAD DEP BOUNDS =         649.1357

            TOTAL IN =      147604.2656              TOTAL IN =        1030.6499

          OUT:                                     OUT:
          ----                                     ----
             STORAGE =           0.1866               STORAGE =           0.0000
       CONSTANT HEAD =           0.0000         CONSTANT HEAD =           0.0000
               WELLS =       42000.0000                 WELLS =         500.0000
     HEAD DEP BOUNDS =      105605.9219       HEAD DEP BOUNDS =         530.6484

           TOTAL OUT =      147606.1094             TOTAL OUT =        1030.6484

            IN - OUT =          -1.8438              IN - OUT =       1.4648E-03

 PERCENT DISCREPANCY =           0.00     PERCENT DISCREPANCY =           0.00






          TIME SUMMARY AT END OF TIME STEP  84 IN STRESS PERIOD    3
                    SECONDS     MINUTES      HOURS       DAYS        YEARS
                    -----------------------------------------------------------
   TIME STEP LENGTH  86400.      1440.0      24.000      1.0000     2.73785E-03
 STRESS PERIOD TIME 7.25760E+06 1.20960E+05  2016.0      84.000     0.22998    
         TOTAL TIME 1.59840E+07 2.66400E+05  4440.0      185.00     0.50650    
1
 
 SOLVING FOR HEAD 

 OUTPUT CONTROL FOR STRESS PERIOD    3   TIME STEP  85
    SAVE HEAD FOR ALL LAYERS
    SAVE DRAWDOWN FOR ALL LAYERS
    SAVE BUDGET
    PRINT HEAD FOR ALL LAYERS
    PRINT BUDGET
 UBDSV1 SAVING "         STORAGE" ON UNIT  53 AT TIME STEP 85, STRESS PERIOD   3
 UBDSV2 SAVING "   CONSTANT HEAD" ON UNIT  53 AT TIME STEP 85, STRESS PERIOD   3
 UBDSV1 SAVING "FLOW RIGHT FACE " ON UNIT  53 AT TIME STEP 85, STRESS PERIOD   3
 UBDSV1 SAVING "FLOW FRONT FACE " ON UNIT  53 AT TIME STEP 85, STRESS PERIOD   3
1
              HEAD IN LAYER   1 AT END OF TIME STEP  85 IN STRESS PERIOD    3
  ---------------------------------------------------------------------------

            1           2           3           4           5           6           7           8           9          10
           11          12          13          14          15          16          17          18          19          20
 ........................................................................................................................
   1    9.990       9.470       8.945       8.414       7.878       7.338       6.797       6.256       5.721       5.195    
        4.678       4.169       3.666       3.163       2.657       2.144       1.623       1.094      0.5562      1.0968E-02
   2    9.989       9.457       8.918       8.372       7.817       7.255       6.689       6.124       5.570       5.035    
        4.524       4.033       3.552       3.073       2.589       2.095       1.590       1.074      0.5464      1.0773E-02
   3    9.989       9.434       8.870       8.293       7.698       7.086       6.459       5.827       5.211       4.643    
        4.158       3.725       3.310       2.892       2.458       2.005       1.530       1.037      0.5291      1.0431E-02
   4    9.988       9.410       8.817       8.200       7.550       6.856       6.110       5.313       4.493       3.758    
        3.427       3.192       2.942       2.644       2.295       1.898       1.463      0.9981      0.5109      1.0072E-02
   5    9.988       9.398       8.790       8.149       7.459       6.691       5.799       4.699       3.221      0.9880    
        2.129       2.553       2.612       2.466       2.194       1.840       1.430      0.9795      0.5025      9.9068E-03
   6    9.989       9.411       8.818       8.202       7.553       6.860       6.115       5.318       4.498       3.763    
        3.432       3.197       2.946       2.648       2.298       1.901       1.465      0.9993      0.5115      1.0084E-02
   7    9.989       9.437       8.875       8.299       7.707       7.096       6.471       5.840       5.225       4.658    
        4.172       3.738       3.322       2.902       2.467       2.012       1.535       1.041      0.5308      1.0464E-02
   8    9.989       9.462       8.928       8.386       7.836       7.279       6.717       6.156       5.604       5.070    
        4.558       4.065       3.581       3.098       2.609       2.111       1.602       1.081      0.5502      1.0849E-02
   9    9.990       9.480       8.965       8.444       7.919       7.389       6.857       6.325       5.795       5.271    
        4.752       4.239       3.728       3.216       2.700       2.178       1.648       1.110      0.5642      1.1125E-02
  10    9.990       9.488       8.982       8.472       7.958       7.440       6.919       6.397       5.875       5.354    
        4.833       4.313       3.793       3.269       2.742       2.209       1.670       1.124      0.5712      1.1263E-02

 HEAD WILL BE SAVED ON UNIT   51 AT END OF TIME STEP  85, STRESS PERIOD    3

 DRAWDOWN WILL BE SAVED ON UNIT   52 AT END OF TIME STEP  85, STRESS PERIOD    3
1
  VOLUMETRIC BUDGET FOR ENTIRE MODEL AT END OF TIME STEP 85 IN STRESS PERIOD   3
  ------------------------------------------------------------------------------

     CUMULATIVE VOLUMES      L**3       RATES FOR THIS TIME STEP      L**3/T
     ------------------                 ------------------------

           IN:                                      IN:
           ---                                      ---
             STORAGE =       38907.1641               STORAGE =         379.3887
       CONSTANT HEAD =           0.0000         CONSTANT HEAD =           0.0000
               WELLS =           0.0000                 WELLS =           0.0000
     HEAD DEP BOUNDS =      109726.7812       HEAD DEP BOUNDS =         650.2875

            TOTAL IN =      148633.9375              TOTAL IN =        1029.6763

          OUT:                                     OUT:
          ----                                     ----
             STORAGE =           0.1866               STORAGE =           0.0000
       CONSTANT HEAD =           0.0000         CONSTANT HEAD =           0.0000
               WELLS =       42500.0000                 WELLS =         500.0000
     HEAD DEP BOUNDS =      106135.6016       HEAD DEP BOUNDS =         529.6813

           TOTAL OUT =      148635.7812             TOTAL OUT =        1029.6814

            IN - OUT =          -1.8438              IN - OUT =      -5.1270E-03

 PERCENT DISCREPANCY =           0.00     PERCENT DISCREPANCY =           0.00






          TIME SUMMARY AT END OF TIME STEP  85 IN STRESS PERIOD    3
                    SECONDS     MINUTES      HOURS       DAYS        YEARS
                    -----------------------------------------------------------
   TIME STEP LENGTH  86400.      1440.0      24.000      1.0000     2.73785E-03
 STRESS PERIOD TIME 7.34400E+06 1.22400E+05  2040.0      85.000     0.23272    
         TOTAL TIME 1.60704E+07 2.67840E+05  4464.0      186.00     0.50924    
1
 
 SOLVING FOR HEAD 

 OUTPUT CONTROL FOR STRESS PERIOD    3   TIME STEP  86
    SAVE HEAD FOR ALL LAYERS
    SAVE DRAWDOWN FOR ALL LAYERS
    SAVE BUDGET
    PRINT HEAD FOR ALL LAYERS
    PRINT BUDGET
 UBDSV1 SAVING "         STORAGE" ON UNIT  53 AT TIME STEP 86, STRESS PERIOD   3
 UBDSV2 SAVING "   CONSTANT HEAD" ON UNIT  53 AT TIME STEP 86, STRESS PERIOD   3
 UBDSV1 SAVING "FLOW RIGHT FACE " ON UNIT  53 AT TIME STEP 86, STRESS PERIOD   3
 UBDSV1 SAVING "FLOW FRONT FACE " ON UNIT  53 AT TIME STEP 86, STRESS PERIOD   3
1
              HEAD IN LAYER   1 AT END OF TIME STEP  86 IN STRESS PERIOD    3
  ---------------------------------------------------------------------------

            1           2           3           4           5           6           7           8           9          10
           11          12          13          14          15          16          17          18          19          20
 ........................................................................................................................
   1    9.990       9.469       8.943       8.411       7.875       7.334       6.792       6.251       5.716       5.189    
        4.672       4.164       3.661       3.158       2.653       2.141       1.621       1.092      0.5554      1.0951E-02
   2    9.989       9.456       8.916       8.369       7.813       7.250       6.684       6.119       5.564       5.029    
        4.518       4.027       3.547       3.068       2.585       2.092       1.588       1.072      0.5454      1.0754E-02
   3    9.989       9.433       8.868       8.289       7.694       7.081       6.453       5.820       5.203       4.636    
        4.151       3.718       3.303       2.886       2.453       2.000       1.527       1.035      0.5280      1.0409E-02
   4    9.988       9.409       8.814       8.196       7.545       6.850       6.103       5.306       4.485       3.749    
        3.419       3.184       2.934       2.637       2.289       1.894       1.460      0.9956      0.5096      1.0047E-02
   5    9.988       9.396       8.787       8.146       7.454       6.684       5.792       4.691       3.212      0.9787    
        2.120       2.544       2.604       2.459       2.188       1.835       1.426      0.9769      0.5012      9.8804E-03
   6    9.988       9.409       8.816       8.199       7.548       6.854       6.108       5.311       4.490       3.755    
        3.424       3.189       2.939       2.641       2.292       1.896       1.462      0.9969      0.5103      1.0059E-02
   7    9.989       9.436       8.873       8.296       7.703       7.091       6.465       5.834       5.218       4.651    
        4.166       3.732       3.316       2.897       2.462       2.008       1.532       1.038      0.5297      1.0443E-02
   8    9.989       9.461       8.926       8.384       7.833       7.275       6.712       6.151       5.599       5.064    
        4.553       4.060       3.576       3.094       2.606       2.108       1.600       1.080      0.5494      1.0833E-02
   9    9.990       9.479       8.963       8.442       7.917       7.387       6.854       6.321       5.791       5.267    
        4.748       4.235       3.724       3.213       2.697       2.176       1.646       1.109      0.5636      1.1113E-02
  10    9.990       9.488       8.981       8.470       7.956       7.437       6.916       6.394       5.872       5.350    
        4.830       4.310       3.790       3.267       2.740       2.208       1.669       1.123      0.5707      1.1253E-02

 HEAD WILL BE SAVED ON UNIT   51 AT END OF TIME STEP  86, STRESS PERIOD    3

 DRAWDOWN WILL BE SAVED ON UNIT   52 AT END OF TIME STEP  86, STRESS PERIOD    3
1
  VOLUMETRIC BUDGET FOR ENTIRE MODEL AT END OF TIME STEP 86 IN STRESS PERIOD   3
  ------------------------------------------------------------------------------

     CUMULATIVE VOLUMES      L**3       RATES FOR THIS TIME STEP      L**3/T
     ------------------                 ------------------------

           IN:                                      IN:
           ---                                      ---
             STORAGE =       39284.4414               STORAGE =         377.2763
       CONSTANT HEAD =           0.0000         CONSTANT HEAD =           0.0000
               WELLS =           0.0000                 WELLS =           0.0000
     HEAD DEP BOUNDS =      110378.2188       HEAD DEP BOUNDS =         651.4338

            TOTAL IN =      149662.6562              TOTAL IN =        1028.7101

          OUT:                                     OUT:
          ----                                     ----
             STORAGE =           0.1866               STORAGE =           0.0000
       CONSTANT HEAD =           0.0000         CONSTANT HEAD =           0.0000
               WELLS =       43000.0000                 WELLS =         500.0000
     HEAD DEP BOUNDS =      106664.3125       HEAD DEP BOUNDS =         528.7145

           TOTAL OUT =      149664.5000             TOTAL OUT =        1028.7146

            IN - OUT =          -1.8438              IN - OUT =      -4.5166E-03

 PERCENT DISCREPANCY =           0.00     PERCENT DISCREPANCY =           0.00






          TIME SUMMARY AT END OF TIME STEP  86 IN STRESS PERIOD    3
                    SECONDS     MINUTES      HOURS       DAYS        YEARS
                    -----------------------------------------------------------
   TIME STEP LENGTH  86400.      1440.0      24.000      1.0000     2.73785E-03
 STRESS PERIOD TIME 7.43040E+06 1.23840E+05  2064.0      86.000     0.23546    
         TOTAL TIME 1.61568E+07 2.69280E+05  4488.0      187.00     0.51198    
1
 
 SOLVING FOR HEAD 

 OUTPUT CONTROL FOR STRESS PERIOD    3   TIME STEP  87
    SAVE HEAD FOR ALL LAYERS
    SAVE DRAWDOWN FOR ALL LAYERS
    SAVE BUDGET
    PRINT HEAD FOR ALL LAYERS
    PRINT BUDGET
 UBDSV1 SAVING "         STORAGE" ON UNIT  53 AT TIME STEP 87, STRESS PERIOD   3
 UBDSV2 SAVING "   CONSTANT HEAD" ON UNIT  53 AT TIME STEP 87, STRESS PERIOD   3
 UBDSV1 SAVING "FLOW RIGHT FACE " ON UNIT  53 AT TIME STEP 87, STRESS PERIOD   3
 UBDSV1 SAVING "FLOW FRONT FACE " ON UNIT  53 AT TIME STEP 87, STRESS PERIOD   3
1
              HEAD IN LAYER   1 AT END OF TIME STEP  87 IN STRESS PERIOD    3
  ---------------------------------------------------------------------------

            1           2           3           4           5           6           7           8           9          10
           11          12          13          14          15          16          17          18          19          20
 ........................................................................................................................
   1    9.990       9.468       8.941       8.409       7.871       7.330       6.787       6.246       5.711       5.184    
        4.667       4.159       3.656       3.154       2.649       2.138       1.619       1.091      0.5546      1.0934E-02
   2    9.989       9.455       8.914       8.366       7.809       7.246       6.678       6.113       5.558       5.023    
        4.512       4.021       3.541       3.063       2.580       2.088       1.585       1.070      0.5445      1.0735E-02
   3    9.989       9.432       8.866       8.286       7.690       7.075       6.447       5.813       5.196       4.629    
        4.144       3.711       3.297       2.880       2.448       1.996       1.524       1.033      0.5269      1.0387E-02
   4    9.988       9.407       8.812       8.193       7.540       6.844       6.097       5.298       4.477       3.741    
        3.410       3.176       2.927       2.631       2.283       1.889       1.456      0.9931      0.5084      1.0022E-02
   5    9.988       9.395       8.784       8.142       7.449       6.678       5.784       4.683       3.203      0.9695    
        2.111       2.536       2.596       2.452       2.182       1.830       1.422      0.9743      0.4999      9.8542E-03
   6    9.988       9.408       8.813       8.195       7.544       6.848       6.101       5.303       4.482       3.746    
        3.416       3.181       2.931       2.635       2.286       1.892       1.458      0.9944      0.5090      1.0035E-02
   7    9.989       9.435       8.871       8.293       7.699       7.087       6.460       5.828       5.211       4.644    
        4.159       3.725       3.310       2.891       2.458       2.004       1.529       1.036      0.5287      1.0423E-02
   8    9.989       9.460       8.925       8.381       7.830       7.271       6.708       6.146       5.593       5.059    
        4.547       4.054       3.571       3.089       2.602       2.105       1.597       1.078      0.5486      1.0816E-02
   9    9.990       9.478       8.962       8.441       7.914       7.384       6.851       6.317       5.787       5.263    
        4.744       4.231       3.721       3.210       2.694       2.173       1.644       1.108      0.5630      1.1101E-02
  10    9.990       9.487       8.980       8.469       7.954       7.435       6.914       6.391       5.868       5.347    
        4.827       4.307       3.787       3.264       2.738       2.206       1.667       1.122      0.5702      1.1243E-02

 HEAD WILL BE SAVED ON UNIT   51 AT END OF TIME STEP  87, STRESS PERIOD    3

 DRAWDOWN WILL BE SAVED ON UNIT   52 AT END OF TIME STEP  87, STRESS PERIOD    3
1
  VOLUMETRIC BUDGET FOR ENTIRE MODEL AT END OF TIME STEP 87 IN STRESS PERIOD   3
  ------------------------------------------------------------------------------

     CUMULATIVE VOLUMES      L**3       RATES FOR THIS TIME STEP      L**3/T
     ------------------                 ------------------------

           IN:                                      IN:
           ---                                      ---
             STORAGE =       39659.6133               STORAGE =         375.1711
       CONSTANT HEAD =           0.0000         CONSTANT HEAD =           0.0000
               WELLS =           0.0000                 WELLS =           0.0000
     HEAD DEP BOUNDS =      111030.7969       HEAD DEP BOUNDS =         652.5783

            TOTAL IN =      150690.4062              TOTAL IN =        1027.7494

          OUT:                                     OUT:
          ----                                     ----
             STORAGE =           0.1866               STORAGE =           0.0000
       CONSTANT HEAD =           0.0000         CONSTANT HEAD =           0.0000
               WELLS =       43500.0000                 WELLS =         500.0000
     HEAD DEP BOUNDS =      107192.0625       HEAD DEP BOUNDS =         527.7498

           TOTAL OUT =      150692.2500             TOTAL OUT =        1027.7498

            IN - OUT =          -1.8438              IN - OUT =      -3.6621E-04

 PERCENT DISCREPANCY =           0.00     PERCENT DISCREPANCY =           0.00






          TIME SUMMARY AT END OF TIME STEP  87 IN STRESS PERIOD    3
                    SECONDS     MINUTES      HOURS       DAYS        YEARS
                    -----------------------------------------------------------
   TIME STEP LENGTH  86400.      1440.0      24.000      1.0000     2.73785E-03
 STRESS PERIOD TIME 7.51680E+06 1.25280E+05  2088.0      87.000     0.23819    
         TOTAL TIME 1.62432E+07 2.70720E+05  4512.0      188.00     0.51472    
1
 
 SOLVING FOR HEAD 

 OUTPUT CONTROL FOR STRESS PERIOD    3   TIME STEP  88
    SAVE HEAD FOR ALL LAYERS
    SAVE DRAWDOWN FOR ALL LAYERS
    SAVE BUDGET
    PRINT HEAD FOR ALL LAYERS
    PRINT BUDGET
 UBDSV1 SAVING "         STORAGE" ON UNIT  53 AT TIME STEP 88, STRESS PERIOD   3
 UBDSV2 SAVING "   CONSTANT HEAD" ON UNIT  53 AT TIME STEP 88, STRESS PERIOD   3
 UBDSV1 SAVING "FLOW RIGHT FACE " ON UNIT  53 AT TIME STEP 88, STRESS PERIOD   3
 UBDSV1 SAVING "FLOW FRONT FACE " ON UNIT  53 AT TIME STEP 88, STRESS PERIOD   3
1
              HEAD IN LAYER   1 AT END OF TIME STEP  88 IN STRESS PERIOD    3
  ---------------------------------------------------------------------------

            1           2           3           4           5           6           7           8           9          10
           11          12          13          14          15          16          17          18          19          20
 ........................................................................................................................
   1    9.990       9.467       8.939       8.406       7.868       7.326       6.783       6.241       5.705       5.178    
        4.661       4.154       3.651       3.150       2.645       2.135       1.616       1.089      0.5537      1.0917E-02
   2    9.989       9.454       8.913       8.363       7.806       7.241       6.673       6.107       5.552       5.017    
        4.506       4.015       3.536       3.058       2.576       2.085       1.582       1.068      0.5435      1.0716E-02
   3    9.989       9.431       8.864       8.283       7.685       7.070       6.441       5.807       5.189       4.621    
        4.136       3.704       3.290       2.874       2.443       1.992       1.521       1.031      0.5257      1.0364E-02
   4    9.988       9.406       8.809       8.189       7.535       6.838       6.090       5.291       4.469       3.732    
        3.402       3.168       2.919       2.624       2.277       1.884       1.452      0.9906      0.5071      9.9965E-03
   5    9.988       9.394       8.782       8.138       7.444       6.672       5.777       4.675       3.195      0.9603    
        2.102       2.528       2.588       2.445       2.176       1.826       1.418      0.9717      0.4985      9.8282E-03
   6    9.988       9.407       8.811       8.192       7.539       6.843       6.095       5.296       4.474       3.738    
        3.408       3.173       2.924       2.628       2.281       1.887       1.454      0.9920      0.5078      1.0010E-02
   7    9.989       9.433       8.869       8.290       7.695       7.082       6.454       5.821       5.205       4.637    
        4.152       3.718       3.304       2.886       2.453       2.000       1.526       1.034      0.5276      1.0402E-02
   8    9.989       9.459       8.923       8.379       7.827       7.267       6.704       6.141       5.588       5.054    
        4.542       4.049       3.567       3.085       2.598       2.102       1.595       1.076      0.5478      1.0800E-02
   9    9.990       9.478       8.961       8.439       7.912       7.381       6.847       6.314       5.783       5.258    
        4.740       4.227       3.717       3.206       2.692       2.171       1.643       1.106      0.5624      1.1089E-02
  10    9.990       9.487       8.979       8.467       7.952       7.432       6.911       6.388       5.865       5.344    
        4.823       4.304       3.784       3.261       2.735       2.204       1.666       1.121      0.5697      1.1234E-02

 HEAD WILL BE SAVED ON UNIT   51 AT END OF TIME STEP  88, STRESS PERIOD    3

 DRAWDOWN WILL BE SAVED ON UNIT   52 AT END OF TIME STEP  88, STRESS PERIOD    3
1
  VOLUMETRIC BUDGET FOR ENTIRE MODEL AT END OF TIME STEP 88 IN STRESS PERIOD   3
  ------------------------------------------------------------------------------

     CUMULATIVE VOLUMES      L**3       RATES FOR THIS TIME STEP      L**3/T
     ------------------                 ------------------------

           IN:                                      IN:
           ---                                      ---
             STORAGE =       40032.6797               STORAGE =         373.0671
       CONSTANT HEAD =           0.0000         CONSTANT HEAD =           0.0000
               WELLS =           0.0000                 WELLS =           0.0000
     HEAD DEP BOUNDS =      111684.5156       HEAD DEP BOUNDS =         653.7170

            TOTAL IN =      151717.1875              TOTAL IN =        1026.7842

          OUT:                                     OUT:
          ----                                     ----
             STORAGE =           0.1866               STORAGE =           0.0000
       CONSTANT HEAD =           0.0000         CONSTANT HEAD =           0.0000
               WELLS =       44000.0000                 WELLS =         500.0000
     HEAD DEP BOUNDS =      107718.8516       HEAD DEP BOUNDS =         526.7852

           TOTAL OUT =      151719.0312             TOTAL OUT =        1026.7852

            IN - OUT =          -1.8438              IN - OUT =      -9.7656E-04

 PERCENT DISCREPANCY =           0.00     PERCENT DISCREPANCY =           0.00






          TIME SUMMARY AT END OF TIME STEP  88 IN STRESS PERIOD    3
                    SECONDS     MINUTES      HOURS       DAYS        YEARS
                    -----------------------------------------------------------
   TIME STEP LENGTH  86400.      1440.0      24.000      1.0000     2.73785E-03
 STRESS PERIOD TIME 7.60320E+06 1.26720E+05  2112.0      88.000     0.24093    
         TOTAL TIME 1.63296E+07 2.72160E+05  4536.0      189.00     0.51745    
1
 
 SOLVING FOR HEAD 

 OUTPUT CONTROL FOR STRESS PERIOD    3   TIME STEP  89
    SAVE HEAD FOR ALL LAYERS
    SAVE DRAWDOWN FOR ALL LAYERS
    SAVE BUDGET
    PRINT HEAD FOR ALL LAYERS
    PRINT BUDGET
 UBDSV1 SAVING "         STORAGE" ON UNIT  53 AT TIME STEP 89, STRESS PERIOD   3
 UBDSV2 SAVING "   CONSTANT HEAD" ON UNIT  53 AT TIME STEP 89, STRESS PERIOD   3
 UBDSV1 SAVING "FLOW RIGHT FACE " ON UNIT  53 AT TIME STEP 89, STRESS PERIOD   3
 UBDSV1 SAVING "FLOW FRONT FACE " ON UNIT  53 AT TIME STEP 89, STRESS PERIOD   3
1
              HEAD IN LAYER   1 AT END OF TIME STEP  89 IN STRESS PERIOD    3
  ---------------------------------------------------------------------------

            1           2           3           4           5           6           7           8           9          10
           11          12          13          14          15          16          17          18          19          20
 ........................................................................................................................
   1    9.990       9.466       8.938       8.404       7.865       7.322       6.778       6.236       5.700       5.173    
        4.656       4.148       3.646       3.145       2.641       2.131       1.614       1.087      0.5529      1.0901E-02
   2    9.989       9.453       8.911       8.360       7.802       7.237       6.668       6.102       5.546       5.010    
        4.500       4.009       3.530       3.053       2.572       2.081       1.579       1.066      0.5426      1.0697E-02
   3    9.989       9.430       8.862       8.280       7.681       7.065       6.435       5.800       5.182       4.614    
        4.129       3.697       3.284       2.868       2.438       1.988       1.517       1.028      0.5246      1.0342E-02
   4    9.988       9.405       8.807       8.185       7.531       6.833       6.083       5.283       4.461       3.724    
        3.394       3.160       2.912       2.617       2.272       1.879       1.449      0.9882      0.5058      9.9716E-03
   5    9.988       9.393       8.779       8.134       7.439       6.666       5.771       4.667       3.186      0.9513    
        2.093       2.519       2.581       2.438       2.170       1.821       1.415      0.9692      0.4972      9.8023E-03
   6    9.988       9.406       8.809       8.188       7.534       6.837       6.088       5.289       4.467       3.730    
        3.400       3.165       2.917       2.622       2.275       1.882       1.451      0.9896      0.5066      9.9858E-03
   7    9.989       9.432       8.866       8.287       7.691       7.077       6.448       5.815       5.198       4.631    
        4.145       3.712       3.298       2.880       2.448       1.996       1.523       1.032      0.5266      1.0381E-02
   8    9.989       9.459       8.921       8.377       7.824       7.263       6.699       6.136       5.583       5.048    
        4.537       4.044       3.562       3.081       2.595       2.099       1.593       1.075      0.5470      1.0784E-02
   9    9.990       9.477       8.960       8.437       7.909       7.378       6.844       6.310       5.779       5.254    
        4.736       4.224       3.714       3.203       2.689       2.169       1.641       1.105      0.5617      1.1076E-02
  10    9.990       9.486       8.978       8.466       7.950       7.430       6.908       6.385       5.862       5.340    
        4.820       4.301       3.781       3.259       2.733       2.202       1.665       1.120      0.5692      1.1223E-02

 HEAD WILL BE SAVED ON UNIT   51 AT END OF TIME STEP  89, STRESS PERIOD    3

 DRAWDOWN WILL BE SAVED ON UNIT   52 AT END OF TIME STEP  89, STRESS PERIOD    3
1
  VOLUMETRIC BUDGET FOR ENTIRE MODEL AT END OF TIME STEP 89 IN STRESS PERIOD   3
  ------------------------------------------------------------------------------

     CUMULATIVE VOLUMES      L**3       RATES FOR THIS TIME STEP      L**3/T
     ------------------                 ------------------------

           IN:                                      IN:
           ---                                      ---
             STORAGE =       40403.6562               STORAGE =         370.9784
       CONSTANT HEAD =           0.0000         CONSTANT HEAD =           0.0000
               WELLS =           0.0000                 WELLS =           0.0000
     HEAD DEP BOUNDS =      112339.3672       HEAD DEP BOUNDS =         654.8503

            TOTAL IN =      152743.0312              TOTAL IN =        1025.8287

          OUT:                                     OUT:
          ----                                     ----
             STORAGE =           0.1866               STORAGE =           0.0000
       CONSTANT HEAD =           0.0000         CONSTANT HEAD =           0.0000
               WELLS =       44500.0000                 WELLS =         500.0000
     HEAD DEP BOUNDS =      108244.6719       HEAD DEP BOUNDS =         525.8231

           TOTAL OUT =      152744.8594             TOTAL OUT =        1025.8230

            IN - OUT =          -1.8281              IN - OUT =       5.7373E-03

 PERCENT DISCREPANCY =           0.00     PERCENT DISCREPANCY =           0.00






          TIME SUMMARY AT END OF TIME STEP  89 IN STRESS PERIOD    3
                    SECONDS     MINUTES      HOURS       DAYS        YEARS
                    -----------------------------------------------------------
   TIME STEP LENGTH  86400.      1440.0      24.000      1.0000     2.73785E-03
 STRESS PERIOD TIME 7.68960E+06 1.28160E+05  2136.0      89.000     0.24367    
         TOTAL TIME 1.64160E+07 2.73600E+05  4560.0      190.00     0.52019    
1
 
 SOLVING FOR HEAD 

 OUTPUT CONTROL FOR STRESS PERIOD    3   TIME STEP  90
    SAVE HEAD FOR ALL LAYERS
    SAVE DRAWDOWN FOR ALL LAYERS
    SAVE BUDGET
    PRINT HEAD FOR ALL LAYERS
    PRINT BUDGET
 UBDSV1 SAVING "         STORAGE" ON UNIT  53 AT TIME STEP 90, STRESS PERIOD   3
 UBDSV2 SAVING "   CONSTANT HEAD" ON UNIT  53 AT TIME STEP 90, STRESS PERIOD   3
 UBDSV1 SAVING "FLOW RIGHT FACE " ON UNIT  53 AT TIME STEP 90, STRESS PERIOD   3
 UBDSV1 SAVING "FLOW FRONT FACE " ON UNIT  53 AT TIME STEP 90, STRESS PERIOD   3
1
              HEAD IN LAYER   1 AT END OF TIME STEP  90 IN STRESS PERIOD    3
  ---------------------------------------------------------------------------

            1           2           3           4           5           6           7           8           9          10
           11          12          13          14          15          16          17          18          19          20
 ........................................................................................................................
   1    9.990       9.465       8.936       8.401       7.862       7.318       6.774       6.231       5.694       5.167    
        4.650       4.143       3.641       3.141       2.637       2.128       1.611       1.086      0.5520      1.0884E-02
   2    9.989       9.452       8.909       8.358       7.798       7.232       6.663       6.096       5.540       5.004    
        4.494       4.003       3.525       3.048       2.567       2.078       1.577       1.064      0.5416      1.0678E-02
   3    9.989       9.429       8.859       8.276       7.677       7.060       6.429       5.794       5.175       4.607    
        4.122       3.690       3.277       2.863       2.433       1.984       1.514       1.026      0.5235      1.0320E-02
   4    9.988       9.404       8.804       8.182       7.526       6.827       6.077       5.276       4.453       3.716    
        3.386       3.152       2.905       2.611       2.266       1.875       1.445      0.9857      0.5046      9.9469E-03
   5    9.988       9.391       8.777       8.131       7.434       6.660       5.764       4.660       3.178      0.9425    
        2.085       2.511       2.573       2.431       2.164       1.816       1.411      0.9666      0.4959      9.7766E-03
   6    9.988       9.405       8.806       8.185       7.530       6.831       6.082       5.281       4.459       3.722    
        3.392       3.158       2.910       2.615       2.270       1.878       1.447      0.9872      0.5053      9.9618E-03
   7    9.989       9.431       8.864       8.284       7.687       7.072       6.443       5.809       5.192       4.624    
        4.139       3.705       3.292       2.875       2.443       1.992       1.520       1.030      0.5255      1.0360E-02
   8    9.989       9.458       8.920       8.374       7.821       7.260       6.695       6.132       5.578       5.043    
        4.532       4.039       3.557       3.077       2.591       2.096       1.590       1.073      0.5461      1.0768E-02
   9    9.990       9.476       8.958       8.435       7.907       7.375       6.840       6.306       5.775       5.250    
        4.732       4.220       3.710       3.200       2.686       2.166       1.639       1.104      0.5611      1.1064E-02
  10    9.990       9.486       8.977       8.464       7.947       7.427       6.905       6.382       5.859       5.337    
        4.817       4.297       3.778       3.256       2.731       2.200       1.663       1.119      0.5686      1.1213E-02

 HEAD WILL BE SAVED ON UNIT   51 AT END OF TIME STEP  90, STRESS PERIOD    3

 DRAWDOWN WILL BE SAVED ON UNIT   52 AT END OF TIME STEP  90, STRESS PERIOD    3
1
  VOLUMETRIC BUDGET FOR ENTIRE MODEL AT END OF TIME STEP 90 IN STRESS PERIOD   3
  ------------------------------------------------------------------------------

     CUMULATIVE VOLUMES      L**3       RATES FOR THIS TIME STEP      L**3/T
     ------------------                 ------------------------

           IN:                                      IN:
           ---                                      ---
             STORAGE =       40772.5469               STORAGE =         368.8919
       CONSTANT HEAD =           0.0000         CONSTANT HEAD =           0.0000
               WELLS =           0.0000                 WELLS =           0.0000
     HEAD DEP BOUNDS =      112995.3438       HEAD DEP BOUNDS =         655.9742

            TOTAL IN =      153767.8906              TOTAL IN =        1024.8661

          OUT:                                     OUT:
          ----                                     ----
             STORAGE =           0.1866               STORAGE =           0.0000
       CONSTANT HEAD =           0.0000         CONSTANT HEAD =           0.0000
               WELLS =       45000.0000                 WELLS =         500.0000
     HEAD DEP BOUNDS =      108769.5312       HEAD DEP BOUNDS =         524.8627

           TOTAL OUT =      153769.7188             TOTAL OUT =        1024.8627

            IN - OUT =          -1.8281              IN - OUT =       3.4180E-03

 PERCENT DISCREPANCY =           0.00     PERCENT DISCREPANCY =           0.00






          TIME SUMMARY AT END OF TIME STEP  90 IN STRESS PERIOD    3
                    SECONDS     MINUTES      HOURS       DAYS        YEARS
                    -----------------------------------------------------------
   TIME STEP LENGTH  86400.      1440.0      24.000      1.0000     2.73785E-03
 STRESS PERIOD TIME 7.77600E+06 1.29600E+05  2160.0      90.000     0.24641    
         TOTAL TIME 1.65024E+07 2.75040E+05  4584.0      191.00     0.52293    
1
 
 SOLVING FOR HEAD 

 OUTPUT CONTROL FOR STRESS PERIOD    3   TIME STEP  91
    SAVE HEAD FOR ALL LAYERS
    SAVE DRAWDOWN FOR ALL LAYERS
    SAVE BUDGET
    PRINT HEAD FOR ALL LAYERS
    PRINT BUDGET
 UBDSV1 SAVING "         STORAGE" ON UNIT  53 AT TIME STEP 91, STRESS PERIOD   3
 UBDSV2 SAVING "   CONSTANT HEAD" ON UNIT  53 AT TIME STEP 91, STRESS PERIOD   3
 UBDSV1 SAVING "FLOW RIGHT FACE " ON UNIT  53 AT TIME STEP 91, STRESS PERIOD   3
 UBDSV1 SAVING "FLOW FRONT FACE " ON UNIT  53 AT TIME STEP 91, STRESS PERIOD   3
1
              HEAD IN LAYER   1 AT END OF TIME STEP  91 IN STRESS PERIOD    3
  ---------------------------------------------------------------------------

            1           2           3           4           5           6           7           8           9          10
           11          12          13          14          15          16          17          18          19          20
 ........................................................................................................................
   1    9.990       9.464       8.934       8.399       7.858       7.314       6.769       6.226       5.689       5.162    
        4.645       4.138       3.636       3.136       2.633       2.125       1.609       1.084      0.5511      1.0866E-02
   2    9.989       9.451       8.907       8.355       7.795       7.228       6.658       6.091       5.534       4.998    
        4.487       3.997       3.519       3.043       2.563       2.074       1.574       1.062      0.5407      1.0659E-02
   3    9.989       9.428       8.857       8.273       7.673       7.055       6.423       5.787       5.168       4.600    
        4.115       3.683       3.271       2.857       2.428       1.980       1.511       1.024      0.5224      1.0298E-02
   4    9.988       9.402       8.802       8.178       7.521       6.821       6.070       5.269       4.445       3.708    
        3.378       3.144       2.898       2.604       2.260       1.870       1.442      0.9833      0.5033      9.9223E-03
   5    9.988       9.390       8.774       8.127       7.429       6.655       5.757       4.652       3.170      0.9337    
        2.076       2.503       2.566       2.424       2.158       1.811       1.407      0.9641      0.4947      9.7512E-03
   6    9.988       9.403       8.804       8.181       7.525       6.826       6.075       5.274       4.451       3.714    
        3.384       3.150       2.903       2.609       2.264       1.873       1.444      0.9849      0.5041      9.9377E-03
   7    9.989       9.430       8.862       8.281       7.683       7.067       6.437       5.803       5.185       4.617    
        4.132       3.699       3.286       2.870       2.439       1.988       1.517       1.028      0.5245      1.0340E-02
   8    9.989       9.457       8.918       8.372       7.817       7.256       6.691       6.127       5.573       5.038    
        4.526       4.034       3.552       3.072       2.587       2.093       1.588       1.072      0.5453      1.0751E-02
   9    9.990       9.476       8.957       8.433       7.904       7.372       6.837       6.303       5.772       5.246    
        4.728       4.216       3.706       3.197       2.683       2.164       1.637       1.103      0.5605      1.1052E-02
  10    9.990       9.485       8.976       8.463       7.945       7.425       6.902       6.379       5.855       5.334    
        4.813       4.294       3.775       3.253       2.728       2.198       1.662       1.118      0.5681      1.1203E-02

 HEAD WILL BE SAVED ON UNIT   51 AT END OF TIME STEP  91, STRESS PERIOD    3

 DRAWDOWN WILL BE SAVED ON UNIT   52 AT END OF TIME STEP  91, STRESS PERIOD    3
1
  VOLUMETRIC BUDGET FOR ENTIRE MODEL AT END OF TIME STEP 91 IN STRESS PERIOD   3
  ------------------------------------------------------------------------------

     CUMULATIVE VOLUMES      L**3       RATES FOR THIS TIME STEP      L**3/T
     ------------------                 ------------------------

           IN:                                      IN:
           ---                                      ---
             STORAGE =       41139.3633               STORAGE =         366.8149
       CONSTANT HEAD =           0.0000         CONSTANT HEAD =           0.0000
               WELLS =           0.0000                 WELLS =           0.0000
     HEAD DEP BOUNDS =      113652.4297       HEAD DEP BOUNDS =         657.0855

            TOTAL IN =      154791.7969              TOTAL IN =        1023.9004

          OUT:                                     OUT:
          ----                                     ----
             STORAGE =           0.1866               STORAGE =           0.0000
       CONSTANT HEAD =           0.0000         CONSTANT HEAD =           0.0000
               WELLS =       45500.0000                 WELLS =         500.0000
     HEAD DEP BOUNDS =      109293.4375       HEAD DEP BOUNDS =         523.9036

           TOTAL OUT =      154793.6250             TOTAL OUT =        1023.9036

            IN - OUT =          -1.8281              IN - OUT =      -3.2349E-03

 PERCENT DISCREPANCY =           0.00     PERCENT DISCREPANCY =           0.00






          TIME SUMMARY AT END OF TIME STEP  91 IN STRESS PERIOD    3
                    SECONDS     MINUTES      HOURS       DAYS        YEARS
                    -----------------------------------------------------------
   TIME STEP LENGTH  86400.      1440.0      24.000      1.0000     2.73785E-03
 STRESS PERIOD TIME 7.86240E+06 1.31040E+05  2184.0      91.000     0.24914    
         TOTAL TIME 1.65888E+07 2.76480E+05  4608.0      192.00     0.52567    
1
 
 SOLVING FOR HEAD 

 OUTPUT CONTROL FOR STRESS PERIOD    3   TIME STEP  92
    SAVE HEAD FOR ALL LAYERS
    SAVE DRAWDOWN FOR ALL LAYERS
    SAVE BUDGET
    PRINT HEAD FOR ALL LAYERS
    PRINT BUDGET
 UBDSV1 SAVING "         STORAGE" ON UNIT  53 AT TIME STEP 92, STRESS PERIOD   3
 UBDSV2 SAVING "   CONSTANT HEAD" ON UNIT  53 AT TIME STEP 92, STRESS PERIOD   3
 UBDSV1 SAVING "FLOW RIGHT FACE " ON UNIT  53 AT TIME STEP 92, STRESS PERIOD   3
 UBDSV1 SAVING "FLOW FRONT FACE " ON UNIT  53 AT TIME STEP 92, STRESS PERIOD   3
1
              HEAD IN LAYER   1 AT END OF TIME STEP  92 IN STRESS PERIOD    3
  ---------------------------------------------------------------------------

            1           2           3           4           5           6           7           8           9          10
           11          12          13          14          15          16          17          18          19          20
 ........................................................................................................................
   1    9.990       9.464       8.932       8.396       7.855       7.310       6.764       6.221       5.684       5.156    
        4.639       4.132       3.631       3.132       2.629       2.122       1.606       1.082      0.5503      1.0849E-02
   2    9.989       9.450       8.905       8.352       7.791       7.224       6.653       6.085       5.528       4.992    
        4.481       3.992       3.514       3.038       2.559       2.070       1.571       1.060      0.5397      1.0640E-02
   3    9.989       9.427       8.855       8.270       7.669       7.050       6.417       5.781       5.162       4.593    
        4.108       3.676       3.265       2.851       2.423       1.975       1.508       1.022      0.5213      1.0276E-02
   4    9.988       9.401       8.800       8.175       7.517       6.816       6.064       5.261       4.438       3.700    
        3.370       3.137       2.890       2.598       2.255       1.865       1.438      0.9809      0.5021      9.8977E-03
   5    9.988       9.389       8.772       8.123       7.425       6.649       5.750       4.645       3.162      0.9250    
        2.068       2.495       2.558       2.418       2.153       1.806       1.404      0.9616      0.4934      9.7258E-03
   6    9.988       9.402       8.802       8.178       7.521       6.820       6.069       5.267       4.444       3.707    
        3.376       3.143       2.896       2.603       2.259       1.869       1.441      0.9825      0.5029      9.9138E-03
   7    9.989       9.429       8.860       8.278       7.679       7.063       6.432       5.797       5.179       4.611    
        4.125       3.693       3.280       2.864       2.434       1.984       1.514       1.026      0.5235      1.0319E-02
   8    9.989       9.456       8.917       8.369       7.814       7.252       6.686       6.122       5.568       5.033    
        4.521       4.029       3.548       3.068       2.583       2.090       1.586       1.070      0.5445      1.0735E-02
   9    9.990       9.475       8.956       8.431       7.902       7.369       6.834       6.299       5.768       5.242    
        4.724       4.212       3.703       3.193       2.680       2.162       1.635       1.102      0.5598      1.1039E-02
  10    9.990       9.485       8.975       8.461       7.943       7.422       6.899       6.376       5.852       5.330    
        4.810       4.291       3.772       3.251       2.726       2.196       1.660       1.117      0.5676      1.1192E-02

 HEAD WILL BE SAVED ON UNIT   51 AT END OF TIME STEP  92, STRESS PERIOD    3

 DRAWDOWN WILL BE SAVED ON UNIT   52 AT END OF TIME STEP  92, STRESS PERIOD    3
1
  VOLUMETRIC BUDGET FOR ENTIRE MODEL AT END OF TIME STEP 92 IN STRESS PERIOD   3
  ------------------------------------------------------------------------------

     CUMULATIVE VOLUMES      L**3       RATES FOR THIS TIME STEP      L**3/T
     ------------------                 ------------------------

           IN:                                      IN:
           ---                                      ---
             STORAGE =       41504.1055               STORAGE =         364.7409
       CONSTANT HEAD =           0.0000         CONSTANT HEAD =           0.0000
               WELLS =           0.0000                 WELLS =           0.0000
     HEAD DEP BOUNDS =      114310.6328       HEAD DEP BOUNDS =         658.2051

            TOTAL IN =      155814.7344              TOTAL IN =        1022.9460

          OUT:                                     OUT:
          ----                                     ----
             STORAGE =           0.1866               STORAGE =           0.0000
       CONSTANT HEAD =           0.0000         CONSTANT HEAD =           0.0000
               WELLS =       46000.0000                 WELLS =         500.0000
     HEAD DEP BOUNDS =      109816.3828       HEAD DEP BOUNDS =         522.9451

           TOTAL OUT =      155816.5625             TOTAL OUT =        1022.9451

            IN - OUT =          -1.8281              IN - OUT =       9.7656E-04

 PERCENT DISCREPANCY =           0.00     PERCENT DISCREPANCY =           0.00






          TIME SUMMARY AT END OF TIME STEP  92 IN STRESS PERIOD    3
                    SECONDS     MINUTES      HOURS       DAYS        YEARS
                    -----------------------------------------------------------
   TIME STEP LENGTH  86400.      1440.0      24.000      1.0000     2.73785E-03
 STRESS PERIOD TIME 7.94880E+06 1.32480E+05  2208.0      92.000     0.25188    
         TOTAL TIME 1.66752E+07 2.77920E+05  4632.0      193.00     0.52841    
1
 
 SOLVING FOR HEAD 

 OUTPUT CONTROL FOR STRESS PERIOD    3   TIME STEP  93
    SAVE HEAD FOR ALL LAYERS
    SAVE DRAWDOWN FOR ALL LAYERS
    SAVE BUDGET
    PRINT HEAD FOR ALL LAYERS
    PRINT BUDGET
 UBDSV1 SAVING "         STORAGE" ON UNIT  53 AT TIME STEP 93, STRESS PERIOD   3
 UBDSV2 SAVING "   CONSTANT HEAD" ON UNIT  53 AT TIME STEP 93, STRESS PERIOD   3
 UBDSV1 SAVING "FLOW RIGHT FACE " ON UNIT  53 AT TIME STEP 93, STRESS PERIOD   3
 UBDSV1 SAVING "FLOW FRONT FACE " ON UNIT  53 AT TIME STEP 93, STRESS PERIOD   3
1
              HEAD IN LAYER   1 AT END OF TIME STEP  93 IN STRESS PERIOD    3
  ---------------------------------------------------------------------------

            1           2           3           4           5           6           7           8           9          10
           11          12          13          14          15          16          17          18          19          20
 ........................................................................................................................
   1    9.990       9.463       8.931       8.394       7.852       7.306       6.760       6.216       5.678       5.151    
        4.634       4.127       3.626       3.127       2.626       2.118       1.604       1.081      0.5494      1.0832E-02
   2    9.989       9.449       8.903       8.349       7.787       7.219       6.648       6.079       5.522       4.986    
        4.475       3.986       3.508       3.033       2.554       2.067       1.568       1.059      0.5387      1.0621E-02
   3    9.989       9.426       8.853       8.267       7.664       7.045       6.411       5.774       5.155       4.586    
        4.101       3.670       3.258       2.845       2.418       1.971       1.505       1.020      0.5202      1.0254E-02
   4    9.988       9.400       8.797       8.171       7.512       6.810       6.057       5.254       4.430       3.692    
        3.362       3.129       2.883       2.592       2.249       1.861       1.435      0.9785      0.5009      9.8733E-03
   5    9.988       9.388       8.769       8.120       7.420       6.643       5.744       4.637       3.154      0.9164    
        2.059       2.487       2.551       2.411       2.147       1.801       1.400      0.9592      0.4921      9.7006E-03
   6    9.988       9.401       8.799       8.174       7.516       6.815       6.063       5.261       4.437       3.699    
        3.369       3.135       2.889       2.597       2.253       1.864       1.437      0.9802      0.5017      9.8900E-03
   7    9.989       9.428       8.858       8.275       7.675       7.058       6.427       5.791       5.173       4.604    
        4.119       3.687       3.274       2.859       2.429       1.980       1.511       1.024      0.5224      1.0299E-02
   8    9.989       9.455       8.915       8.367       7.811       7.248       6.682       6.117       5.563       5.027    
        4.516       4.024       3.543       3.064       2.580       2.087       1.583       1.068      0.5437      1.0719E-02
   9    9.990       9.474       8.954       8.429       7.900       7.366       6.830       6.295       5.764       5.238    
        4.720       4.208       3.699       3.190       2.677       2.159       1.634       1.100      0.5592      1.1026E-02
  10    9.990       9.484       8.974       8.459       7.941       7.420       6.897       6.372       5.849       5.327    
        4.807       4.288       3.769       3.248       2.724       2.194       1.659       1.116      0.5671      1.1182E-02

 HEAD WILL BE SAVED ON UNIT   51 AT END OF TIME STEP  93, STRESS PERIOD    3

 DRAWDOWN WILL BE SAVED ON UNIT   52 AT END OF TIME STEP  93, STRESS PERIOD    3
1
  VOLUMETRIC BUDGET FOR ENTIRE MODEL AT END OF TIME STEP 93 IN STRESS PERIOD   3
  ------------------------------------------------------------------------------

     CUMULATIVE VOLUMES      L**3       RATES FOR THIS TIME STEP      L**3/T
     ------------------                 ------------------------

           IN:                                      IN:
           ---                                      ---
             STORAGE =       41866.7852               STORAGE =         362.6807
       CONSTANT HEAD =           0.0000         CONSTANT HEAD =           0.0000
               WELLS =           0.0000                 WELLS =           0.0000
     HEAD DEP BOUNDS =      114969.9375       HEAD DEP BOUNDS =         659.3050

            TOTAL IN =      156836.7188              TOTAL IN =        1021.9857

          OUT:                                     OUT:
          ----                                     ----
             STORAGE =           0.1866               STORAGE =           0.0000
       CONSTANT HEAD =           0.0000         CONSTANT HEAD =           0.0000
               WELLS =       46500.0000                 WELLS =         500.0000
     HEAD DEP BOUNDS =      110338.3750       HEAD DEP BOUNDS =         521.9891

           TOTAL OUT =      156838.5625             TOTAL OUT =        1021.9891

            IN - OUT =          -1.8438              IN - OUT =      -3.3569E-03

 PERCENT DISCREPANCY =           0.00     PERCENT DISCREPANCY =           0.00






          TIME SUMMARY AT END OF TIME STEP  93 IN STRESS PERIOD    3
                    SECONDS     MINUTES      HOURS       DAYS        YEARS
                    -----------------------------------------------------------
   TIME STEP LENGTH  86400.      1440.0      24.000      1.0000     2.73785E-03
 STRESS PERIOD TIME 8.03520E+06 1.33920E+05  2232.0      93.000     0.25462    
         TOTAL TIME 1.67616E+07 2.79360E+05  4656.0      194.00     0.53114    
1
 
 SOLVING FOR HEAD 

 OUTPUT CONTROL FOR STRESS PERIOD    3   TIME STEP  94
    SAVE HEAD FOR ALL LAYERS
    SAVE DRAWDOWN FOR ALL LAYERS
    SAVE BUDGET
    PRINT HEAD FOR ALL LAYERS
    PRINT BUDGET
 UBDSV1 SAVING "         STORAGE" ON UNIT  53 AT TIME STEP 94, STRESS PERIOD   3
 UBDSV2 SAVING "   CONSTANT HEAD" ON UNIT  53 AT TIME STEP 94, STRESS PERIOD   3
 UBDSV1 SAVING "FLOW RIGHT FACE " ON UNIT  53 AT TIME STEP 94, STRESS PERIOD   3
 UBDSV1 SAVING "FLOW FRONT FACE " ON UNIT  53 AT TIME STEP 94, STRESS PERIOD   3
1
              HEAD IN LAYER   1 AT END OF TIME STEP  94 IN STRESS PERIOD    3
  ---------------------------------------------------------------------------

            1           2           3           4           5           6           7           8           9          10
           11          12          13          14          15          16          17          18          19          20
 ........................................................................................................................
   1    9.989       9.462       8.929       8.391       7.848       7.302       6.755       6.211       5.673       5.145    
        4.628       4.122       3.621       3.123       2.622       2.115       1.601       1.079      0.5485      1.0815E-02
   2    9.989       9.448       8.901       8.346       7.784       7.215       6.643       6.074       5.516       4.980    
        4.469       3.980       3.503       3.028       2.550       2.063       1.566       1.057      0.5378      1.0602E-02
   3    9.989       9.425       8.851       8.264       7.660       7.040       6.406       5.768       5.148       4.579    
        4.094       3.663       3.252       2.840       2.413       1.967       1.502       1.018      0.5191      1.0233E-02
   4    9.988       9.399       8.795       8.168       7.508       6.805       6.051       5.247       4.422       3.684    
        3.354       3.122       2.876       2.585       2.244       1.856       1.431      0.9761      0.4996      9.8491E-03
   5    9.988       9.386       8.767       8.116       7.415       6.637       5.737       4.630       3.146      0.9079    
        2.051       2.479       2.544       2.404       2.141       1.797       1.396      0.9567      0.4908      9.6757E-03
   6    9.988       9.400       8.797       8.171       7.512       6.810       6.057       5.254       4.429       3.691    
        3.361       3.128       2.882       2.591       2.248       1.860       1.434      0.9779      0.5005      9.8665E-03
   7    9.989       9.427       8.856       8.272       7.671       7.053       6.421       5.785       5.167       4.598    
        4.113       3.680       3.268       2.854       2.425       1.977       1.508       1.022      0.5214      1.0279E-02
   8    9.989       9.455       8.913       8.365       7.808       7.245       6.678       6.113       5.558       5.022    
        4.511       4.019       3.538       3.060       2.576       2.084       1.581       1.067      0.5429      1.0703E-02
   9    9.990       9.474       8.953       8.427       7.897       7.363       6.827       6.291       5.760       5.234    
        4.716       4.204       3.695       3.187       2.675       2.157       1.632       1.099      0.5586      1.1014E-02
  10    9.990       9.483       8.973       8.458       7.939       7.417       6.894       6.369       5.845       5.323    
        4.803       4.284       3.766       3.245       2.721       2.192       1.657       1.115      0.5665      1.1171E-02

 HEAD WILL BE SAVED ON UNIT   51 AT END OF TIME STEP  94, STRESS PERIOD    3

 DRAWDOWN WILL BE SAVED ON UNIT   52 AT END OF TIME STEP  94, STRESS PERIOD    3
1
  VOLUMETRIC BUDGET FOR ENTIRE MODEL AT END OF TIME STEP 94 IN STRESS PERIOD   3
  ------------------------------------------------------------------------------

     CUMULATIVE VOLUMES      L**3       RATES FOR THIS TIME STEP      L**3/T
     ------------------                 ------------------------

           IN:                                      IN:
           ---                                      ---
             STORAGE =       42227.4141               STORAGE =         360.6292
       CONSTANT HEAD =           0.0000         CONSTANT HEAD =           0.0000
               WELLS =           0.0000                 WELLS =           0.0000
     HEAD DEP BOUNDS =      115630.3438       HEAD DEP BOUNDS =         660.4025

            TOTAL IN =      157857.7500              TOTAL IN =        1021.0317

          OUT:                                     OUT:
          ----                                     ----
             STORAGE =           0.1866               STORAGE =           0.0000
       CONSTANT HEAD =           0.0000         CONSTANT HEAD =           0.0000
               WELLS =       47000.0000                 WELLS =         500.0000
     HEAD DEP BOUNDS =      110859.4141       HEAD DEP BOUNDS =         521.0365

           TOTAL OUT =      157859.5938             TOTAL OUT =        1021.0365

            IN - OUT =          -1.8438              IN - OUT =      -4.8218E-03

 PERCENT DISCREPANCY =           0.00     PERCENT DISCREPANCY =           0.00






          TIME SUMMARY AT END OF TIME STEP  94 IN STRESS PERIOD    3
                    SECONDS     MINUTES      HOURS       DAYS        YEARS
                    -----------------------------------------------------------
   TIME STEP LENGTH  86400.      1440.0      24.000      1.0000     2.73785E-03
 STRESS PERIOD TIME 8.12160E+06 1.35360E+05  2256.0      94.000     0.25736    
         TOTAL TIME 1.68480E+07 2.80800E+05  4680.0      195.00     0.53388    
1
 
 SOLVING FOR HEAD 

 OUTPUT CONTROL FOR STRESS PERIOD    3   TIME STEP  95
    SAVE HEAD FOR ALL LAYERS
    SAVE DRAWDOWN FOR ALL LAYERS
    SAVE BUDGET
    PRINT HEAD FOR ALL LAYERS
    PRINT BUDGET
 UBDSV1 SAVING "         STORAGE" ON UNIT  53 AT TIME STEP 95, STRESS PERIOD   3
 UBDSV2 SAVING "   CONSTANT HEAD" ON UNIT  53 AT TIME STEP 95, STRESS PERIOD   3
 UBDSV1 SAVING "FLOW RIGHT FACE " ON UNIT  53 AT TIME STEP 95, STRESS PERIOD   3
 UBDSV1 SAVING "FLOW FRONT FACE " ON UNIT  53 AT TIME STEP 95, STRESS PERIOD   3
1
              HEAD IN LAYER   1 AT END OF TIME STEP  95 IN STRESS PERIOD    3
  ---------------------------------------------------------------------------

            1           2           3           4           5           6           7           8           9          10
           11          12          13          14          15          16          17          18          19          20
 ........................................................................................................................
   1    9.989       9.461       8.927       8.388       7.845       7.298       6.751       6.206       5.668       5.140    
        4.623       4.116       3.616       3.118       2.618       2.112       1.599       1.077      0.5477      1.0798E-02
   2    9.989       9.447       8.899       8.344       7.780       7.210       6.638       6.068       5.511       4.974    
        4.463       3.974       3.497       3.024       2.546       2.060       1.563       1.055      0.5368      1.0583E-02
   3    9.989       9.423       8.849       8.261       7.656       7.035       6.400       5.762       5.141       4.572    
        4.087       3.656       3.246       2.834       2.408       1.963       1.498       1.015      0.5180      1.0211E-02
   4    9.988       9.398       8.793       8.164       7.503       6.799       6.045       5.240       4.415       3.677    
        3.347       3.114       2.869       2.579       2.238       1.852       1.428      0.9737      0.4984      9.8251E-03
   5    9.988       9.385       8.765       8.113       7.411       6.632       5.730       4.623       3.138      0.8994    
        2.043       2.472       2.536       2.398       2.136       1.792       1.393      0.9542      0.4896      9.6508E-03
   6    9.988       9.399       8.795       8.168       7.508       6.804       6.051       5.247       4.422       3.684    
        3.354       3.121       2.876       2.584       2.243       1.855       1.430      0.9755      0.4993      9.8431E-03
   7    9.989       9.426       8.855       8.269       7.668       7.049       6.416       5.780       5.160       4.591    
        4.106       3.674       3.262       2.848       2.420       1.973       1.506       1.020      0.5204      1.0258E-02
   8    9.989       9.454       8.912       8.362       7.805       7.241       6.673       6.108       5.553       5.017    
        4.506       4.014       3.534       3.055       2.572       2.081       1.579       1.065      0.5420      1.0687E-02
   9    9.990       9.473       8.952       8.426       7.895       7.360       6.824       6.288       5.756       5.230    
        4.712       4.200       3.692       3.183       2.672       2.154       1.630       1.098      0.5579      1.1001E-02
  10    9.990       9.483       8.972       8.456       7.937       7.415       6.891       6.366       5.842       5.320    
        4.800       4.281       3.763       3.242       2.719       2.190       1.655       1.114      0.5660      1.1161E-02

 HEAD WILL BE SAVED ON UNIT   51 AT END OF TIME STEP  95, STRESS PERIOD    3

 DRAWDOWN WILL BE SAVED ON UNIT   52 AT END OF TIME STEP  95, STRESS PERIOD    3
1
  VOLUMETRIC BUDGET FOR ENTIRE MODEL AT END OF TIME STEP 95 IN STRESS PERIOD   3
  ------------------------------------------------------------------------------

     CUMULATIVE VOLUMES      L**3       RATES FOR THIS TIME STEP      L**3/T
     ------------------                 ------------------------

           IN:                                      IN:
           ---                                      ---
             STORAGE =       42586.0000               STORAGE =         358.5868
       CONSTANT HEAD =           0.0000         CONSTANT HEAD =           0.0000
               WELLS =           0.0000                 WELLS =           0.0000
     HEAD DEP BOUNDS =      116291.8438       HEAD DEP BOUNDS =         661.5013

            TOTAL IN =      158877.8438              TOTAL IN =        1020.0881

          OUT:                                     OUT:
          ----                                     ----
             STORAGE =           0.1866               STORAGE =           0.0000
       CONSTANT HEAD =           0.0000         CONSTANT HEAD =           0.0000
               WELLS =       47500.0000                 WELLS =         500.0000
     HEAD DEP BOUNDS =      111379.5000       HEAD DEP BOUNDS =         520.0857

           TOTAL OUT =      158879.6875             TOTAL OUT =        1020.0857

            IN - OUT =          -1.8438              IN - OUT =       2.4414E-03

 PERCENT DISCREPANCY =           0.00     PERCENT DISCREPANCY =           0.00






          TIME SUMMARY AT END OF TIME STEP  95 IN STRESS PERIOD    3
                    SECONDS     MINUTES      HOURS       DAYS        YEARS
                    -----------------------------------------------------------
   TIME STEP LENGTH  86400.      1440.0      24.000      1.0000     2.73785E-03
 STRESS PERIOD TIME 8.20800E+06 1.36800E+05  2280.0      95.000     0.26010    
         TOTAL TIME 1.69344E+07 2.82240E+05  4704.0      196.00     0.53662    
1
 
 SOLVING FOR HEAD 

 OUTPUT CONTROL FOR STRESS PERIOD    3   TIME STEP  96
    SAVE HEAD FOR ALL LAYERS
    SAVE DRAWDOWN FOR ALL LAYERS
    SAVE BUDGET
    PRINT HEAD FOR ALL LAYERS
    PRINT BUDGET
 UBDSV1 SAVING "         STORAGE" ON UNIT  53 AT TIME STEP 96, STRESS PERIOD   3
 UBDSV2 SAVING "   CONSTANT HEAD" ON UNIT  53 AT TIME STEP 96, STRESS PERIOD   3
 UBDSV1 SAVING "FLOW RIGHT FACE " ON UNIT  53 AT TIME STEP 96, STRESS PERIOD   3
 UBDSV1 SAVING "FLOW FRONT FACE " ON UNIT  53 AT TIME STEP 96, STRESS PERIOD   3
1
              HEAD IN LAYER   1 AT END OF TIME STEP  96 IN STRESS PERIOD    3
  ---------------------------------------------------------------------------

            1           2           3           4           5           6           7           8           9          10
           11          12          13          14          15          16          17          18          19          20
 ........................................................................................................................
   1    9.989       9.460       8.926       8.386       7.842       7.294       6.746       6.201       5.662       5.134    
        4.617       4.111       3.611       3.114       2.614       2.109       1.596       1.076      0.5468      1.0780E-02
   2    9.989       9.446       8.897       8.341       7.777       7.206       6.633       6.063       5.505       4.968    
        4.457       3.968       3.492       3.019       2.542       2.056       1.560       1.053      0.5358      1.0564E-02
   3    9.989       9.422       8.847       8.258       7.652       7.030       6.394       5.756       5.135       4.565    
        4.080       3.650       3.240       2.828       2.403       1.959       1.495       1.013      0.5169      1.0189E-02
   4    9.988       9.396       8.790       8.161       7.499       6.794       6.038       5.233       4.408       3.669    
        3.339       3.107       2.863       2.573       2.233       1.847       1.424      0.9714      0.4972      9.8011E-03
   5    9.988       9.384       8.762       8.109       7.406       6.626       5.724       4.615       3.130      0.8911    
        2.035       2.464       2.529       2.391       2.130       1.788       1.389      0.9518      0.4883      9.6262E-03
   6    9.988       9.398       8.793       8.164       7.503       6.799       6.045       5.240       4.415       3.677    
        3.346       3.114       2.869       2.578       2.237       1.851       1.427      0.9733      0.4982      9.8198E-03
   7    9.989       9.425       8.853       8.266       7.664       7.044       6.411       5.774       5.154       4.585    
        4.100       3.668       3.257       2.843       2.416       1.969       1.503       1.018      0.5194      1.0238E-02
   8    9.989       9.453       8.910       8.360       7.802       7.237       6.669       6.103       5.548       5.012    
        4.501       4.009       3.529       3.051       2.569       2.078       1.576       1.064      0.5412      1.0670E-02
   9    9.990       9.473       8.951       8.424       7.892       7.357       6.820       6.284       5.752       5.226    
        4.708       4.196       3.688       3.180       2.669       2.152       1.628       1.097      0.5573      1.0988E-02
  10    9.990       9.482       8.971       8.455       7.935       7.412       6.888       6.363       5.839       5.317    
        4.796       4.278       3.759       3.240       2.716       2.188       1.654       1.113      0.5655      1.1150E-02

 HEAD WILL BE SAVED ON UNIT   51 AT END OF TIME STEP  96, STRESS PERIOD    3

 DRAWDOWN WILL BE SAVED ON UNIT   52 AT END OF TIME STEP  96, STRESS PERIOD    3
1
  VOLUMETRIC BUDGET FOR ENTIRE MODEL AT END OF TIME STEP 96 IN STRESS PERIOD   3
  ------------------------------------------------------------------------------

     CUMULATIVE VOLUMES      L**3       RATES FOR THIS TIME STEP      L**3/T
     ------------------                 ------------------------

           IN:                                      IN:
           ---                                      ---
             STORAGE =       42942.5508               STORAGE =         356.5508
       CONSTANT HEAD =           0.0000         CONSTANT HEAD =           0.0000
               WELLS =           0.0000                 WELLS =           0.0000
     HEAD DEP BOUNDS =      116954.4297       HEAD DEP BOUNDS =         662.5836

            TOTAL IN =      159896.9844              TOTAL IN =        1019.1344

          OUT:                                     OUT:
          ----                                     ----
             STORAGE =           0.1866               STORAGE =           0.0000
       CONSTANT HEAD =           0.0000         CONSTANT HEAD =           0.0000
               WELLS =       48000.0000                 WELLS =         500.0000
     HEAD DEP BOUNDS =      111898.6406       HEAD DEP BOUNDS =         519.1371

           TOTAL OUT =      159898.8281             TOTAL OUT =        1019.1371

            IN - OUT =          -1.8438              IN - OUT =      -2.6855E-03

 PERCENT DISCREPANCY =           0.00     PERCENT DISCREPANCY =           0.00






          TIME SUMMARY AT END OF TIME STEP  96 IN STRESS PERIOD    3
                    SECONDS     MINUTES      HOURS       DAYS        YEARS
                    -----------------------------------------------------------
   TIME STEP LENGTH  86400.      1440.0      24.000      1.0000     2.73785E-03
 STRESS PERIOD TIME 8.29440E+06 1.38240E+05  2304.0      96.000     0.26283    
         TOTAL TIME 1.70208E+07 2.83680E+05  4728.0      197.00     0.53936    
1
 
 SOLVING FOR HEAD 

 OUTPUT CONTROL FOR STRESS PERIOD    3   TIME STEP  97
    SAVE HEAD FOR ALL LAYERS
    SAVE DRAWDOWN FOR ALL LAYERS
    SAVE BUDGET
    PRINT HEAD FOR ALL LAYERS
    PRINT BUDGET
 UBDSV1 SAVING "         STORAGE" ON UNIT  53 AT TIME STEP 97, STRESS PERIOD   3
 UBDSV2 SAVING "   CONSTANT HEAD" ON UNIT  53 AT TIME STEP 97, STRESS PERIOD   3
 UBDSV1 SAVING "FLOW RIGHT FACE " ON UNIT  53 AT TIME STEP 97, STRESS PERIOD   3
 UBDSV1 SAVING "FLOW FRONT FACE " ON UNIT  53 AT TIME STEP 97, STRESS PERIOD   3
1
              HEAD IN LAYER   1 AT END OF TIME STEP  97 IN STRESS PERIOD    3
  ---------------------------------------------------------------------------

            1           2           3           4           5           6           7           8           9          10
           11          12          13          14          15          16          17          18          19          20
 ........................................................................................................................
   1    9.989       9.459       8.924       8.383       7.838       7.290       6.741       6.196       5.657       5.129    
        4.612       4.106       3.606       3.109       2.610       2.106       1.594       1.074      0.5459      1.0763E-02
   2    9.989       9.446       8.896       8.338       7.773       7.202       6.628       6.057       5.499       4.962    
        4.451       3.962       3.486       3.014       2.537       2.053       1.557       1.051      0.5349      1.0545E-02
   3    9.989       9.421       8.845       8.254       7.648       7.025       6.389       5.749       5.128       4.558    
        4.074       3.643       3.234       2.823       2.398       1.955       1.492       1.011      0.5158      1.0168E-02
   4    9.988       9.395       8.788       8.158       7.494       6.788       6.032       5.227       4.400       3.661    
        3.331       3.100       2.856       2.567       2.227       1.843       1.421      0.9690      0.4960      9.7772E-03
   5    9.988       9.383       8.760       8.106       7.402       6.621       5.718       4.608       3.122      0.8829    
        2.027       2.456       2.522       2.385       2.125       1.783       1.386      0.9494      0.4871      9.6016E-03
   6    9.988       9.397       8.790       8.161       7.499       6.794       6.039       5.234       4.408       3.669    
        3.339       3.107       2.862       2.572       2.232       1.847       1.424      0.9710      0.4970      9.7967E-03
   7    9.989       9.424       8.851       8.264       7.660       7.040       6.406       5.768       5.148       4.579    
        4.094       3.662       3.251       2.838       2.411       1.965       1.500       1.016      0.5184      1.0218E-02
   8    9.989       9.452       8.909       8.358       7.799       7.234       6.665       6.099       5.543       5.007    
        4.496       4.004       3.525       3.047       2.565       2.075       1.574       1.062      0.5404      1.0654E-02
   9    9.990       9.472       8.949       8.422       7.890       7.354       6.817       6.280       5.748       5.222    
        4.704       4.192       3.684       3.177       2.666       2.150       1.626       1.095      0.5566      1.0976E-02
  10    9.990       9.482       8.969       8.453       7.933       7.410       6.885       6.360       5.835       5.313    
        4.793       4.274       3.756       3.237       2.714       2.186       1.652       1.112      0.5649      1.1139E-02

 HEAD WILL BE SAVED ON UNIT   51 AT END OF TIME STEP  97, STRESS PERIOD    3

 DRAWDOWN WILL BE SAVED ON UNIT   52 AT END OF TIME STEP  97, STRESS PERIOD    3
1
  VOLUMETRIC BUDGET FOR ENTIRE MODEL AT END OF TIME STEP 97 IN STRESS PERIOD   3
  ------------------------------------------------------------------------------

     CUMULATIVE VOLUMES      L**3       RATES FOR THIS TIME STEP      L**3/T
     ------------------                 ------------------------

           IN:                                      IN:
           ---                                      ---
             STORAGE =       43297.0742               STORAGE =         354.5236
       CONSTANT HEAD =           0.0000         CONSTANT HEAD =           0.0000
               WELLS =           0.0000                 WELLS =           0.0000
     HEAD DEP BOUNDS =      117618.1016       HEAD DEP BOUNDS =         663.6707

            TOTAL IN =      160915.1719              TOTAL IN =        1018.1943

          OUT:                                     OUT:
          ----                                     ----
             STORAGE =           0.1866               STORAGE =           0.0000
       CONSTANT HEAD =           0.0000         CONSTANT HEAD =           0.0000
               WELLS =       48500.0000                 WELLS =         500.0000
     HEAD DEP BOUNDS =      112416.8281       HEAD DEP BOUNDS =         518.1899

           TOTAL OUT =      160917.0156             TOTAL OUT =        1018.1899

            IN - OUT =          -1.8438              IN - OUT =       4.4556E-03

 PERCENT DISCREPANCY =           0.00     PERCENT DISCREPANCY =           0.00






          TIME SUMMARY AT END OF TIME STEP  97 IN STRESS PERIOD    3
                    SECONDS     MINUTES      HOURS       DAYS        YEARS
                    -----------------------------------------------------------
   TIME STEP LENGTH  86400.      1440.0      24.000      1.0000     2.73785E-03
 STRESS PERIOD TIME 8.38080E+06 1.39680E+05  2328.0      97.000     0.26557    
         TOTAL TIME 1.71072E+07 2.85120E+05  4752.0      198.00     0.54209    
1
 
 SOLVING FOR HEAD 

 OUTPUT CONTROL FOR STRESS PERIOD    3   TIME STEP  98
    SAVE HEAD FOR ALL LAYERS
    SAVE DRAWDOWN FOR ALL LAYERS
    SAVE BUDGET
    PRINT HEAD FOR ALL LAYERS
    PRINT BUDGET
 UBDSV1 SAVING "         STORAGE" ON UNIT  53 AT TIME STEP 98, STRESS PERIOD   3
 UBDSV2 SAVING "   CONSTANT HEAD" ON UNIT  53 AT TIME STEP 98, STRESS PERIOD   3
 UBDSV1 SAVING "FLOW RIGHT FACE " ON UNIT  53 AT TIME STEP 98, STRESS PERIOD   3
 UBDSV1 SAVING "FLOW FRONT FACE " ON UNIT  53 AT TIME STEP 98, STRESS PERIOD   3
1
              HEAD IN LAYER   1 AT END OF TIME STEP  98 IN STRESS PERIOD    3
  ---------------------------------------------------------------------------

            1           2           3           4           5           6           7           8           9          10
           11          12          13          14          15          16          17          18          19          20
 ........................................................................................................................
   1    9.989       9.458       8.922       8.381       7.835       7.286       6.737       6.191       5.652       5.123    
        4.607       4.101       3.601       3.105       2.606       2.102       1.591       1.072      0.5450      1.0745E-02
   2    9.989       9.445       8.894       8.335       7.769       7.197       6.623       6.052       5.493       4.956    
        4.445       3.957       3.481       3.009       2.533       2.049       1.555       1.049      0.5339      1.0526E-02
   3    9.989       9.420       8.842       8.251       7.644       7.020       6.383       5.743       5.122       4.552    
        4.067       3.636       3.227       2.817       2.394       1.951       1.489       1.009      0.5147      1.0146E-02
   4    9.988       9.394       8.786       8.154       7.490       6.783       6.026       5.220       4.393       3.654    
        3.324       3.092       2.849       2.561       2.222       1.839       1.417      0.9667      0.4948      9.7536E-03
   5    9.988       9.382       8.758       8.102       7.397       6.615       5.711       4.601       3.115      0.8748    
        2.019       2.449       2.515       2.379       2.119       1.778       1.382      0.9470      0.4859      9.5773E-03
   6    9.988       9.395       8.788       8.158       7.495       6.789       6.033       5.227       4.401       3.662    
        3.332       3.100       2.856       2.566       2.227       1.843       1.420      0.9687      0.4958      9.7737E-03
   7    9.989       9.424       8.849       8.261       7.657       7.035       6.401       5.763       5.142       4.573    
        4.087       3.656       3.245       2.833       2.407       1.962       1.497       1.014      0.5174      1.0198E-02
   8    9.989       9.451       8.907       8.355       7.796       7.230       6.661       6.094       5.538       5.002    
        4.491       4.000       3.520       3.043       2.562       2.072       1.572       1.061      0.5396      1.0638E-02
   9    9.990       9.471       8.948       8.420       7.887       7.351       6.813       6.277       5.744       5.218    
        4.700       4.189       3.681       3.173       2.663       2.147       1.624       1.094      0.5560      1.0963E-02
  10    9.990       9.481       8.968       8.451       7.931       7.407       6.882       6.357       5.832       5.310    
        4.790       4.271       3.753       3.234       2.711       2.184       1.651       1.111      0.5644      1.1128E-02

 HEAD WILL BE SAVED ON UNIT   51 AT END OF TIME STEP  98, STRESS PERIOD    3

 DRAWDOWN WILL BE SAVED ON UNIT   52 AT END OF TIME STEP  98, STRESS PERIOD    3
1
  VOLUMETRIC BUDGET FOR ENTIRE MODEL AT END OF TIME STEP 98 IN STRESS PERIOD   3
  ------------------------------------------------------------------------------

     CUMULATIVE VOLUMES      L**3       RATES FOR THIS TIME STEP      L**3/T
     ------------------                 ------------------------

           IN:                                      IN:
           ---                                      ---
             STORAGE =       43649.5781               STORAGE =         352.5040
       CONSTANT HEAD =           0.0000         CONSTANT HEAD =           0.0000
               WELLS =           0.0000                 WELLS =           0.0000
     HEAD DEP BOUNDS =      118282.8438       HEAD DEP BOUNDS =         664.7450

            TOTAL IN =      161932.4219              TOTAL IN =        1017.2490

          OUT:                                     OUT:
          ----                                     ----
             STORAGE =           0.1866               STORAGE =           0.0000
       CONSTANT HEAD =           0.0000         CONSTANT HEAD =           0.0000
               WELLS =       49000.0000                 WELLS =         500.0000
     HEAD DEP BOUNDS =      112934.0703       HEAD DEP BOUNDS =         517.2453

           TOTAL OUT =      161934.2500             TOTAL OUT =        1017.2453

            IN - OUT =          -1.8281              IN - OUT =       3.6621E-03

 PERCENT DISCREPANCY =           0.00     PERCENT DISCREPANCY =           0.00






          TIME SUMMARY AT END OF TIME STEP  98 IN STRESS PERIOD    3
                    SECONDS     MINUTES      HOURS       DAYS        YEARS
                    -----------------------------------------------------------
   TIME STEP LENGTH  86400.      1440.0      24.000      1.0000     2.73785E-03
 STRESS PERIOD TIME 8.46720E+06 1.41120E+05  2352.0      98.000     0.26831    
         TOTAL TIME 1.71936E+07 2.86560E+05  4776.0      199.00     0.54483    
1
 
 SOLVING FOR HEAD 

 OUTPUT CONTROL FOR STRESS PERIOD    3   TIME STEP  99
    SAVE HEAD FOR ALL LAYERS
    SAVE DRAWDOWN FOR ALL LAYERS
    SAVE BUDGET
    PRINT HEAD FOR ALL LAYERS
    PRINT BUDGET
 UBDSV1 SAVING "         STORAGE" ON UNIT  53 AT TIME STEP 99, STRESS PERIOD   3
 UBDSV2 SAVING "   CONSTANT HEAD" ON UNIT  53 AT TIME STEP 99, STRESS PERIOD   3
 UBDSV1 SAVING "FLOW RIGHT FACE " ON UNIT  53 AT TIME STEP 99, STRESS PERIOD   3
 UBDSV1 SAVING "FLOW FRONT FACE " ON UNIT  53 AT TIME STEP 99, STRESS PERIOD   3
1
              HEAD IN LAYER   1 AT END OF TIME STEP  99 IN STRESS PERIOD    3
  ---------------------------------------------------------------------------

            1           2           3           4           5           6           7           8           9          10
           11          12          13          14          15          16          17          18          19          20
 ........................................................................................................................
   1    9.989       9.457       8.920       8.378       7.832       7.282       6.732       6.186       5.646       5.118    
        4.601       4.095       3.596       3.100       2.602       2.099       1.589       1.070      0.5441      1.0728E-02
   2    9.989       9.444       8.892       8.333       7.766       7.193       6.618       6.047       5.487       4.950    
        4.439       3.951       3.476       3.004       2.529       2.046       1.552       1.047      0.5330      1.0507E-02
   3    9.989       9.419       8.840       8.248       7.640       7.016       6.378       5.737       5.115       4.545    
        4.060       3.630       3.221       2.812       2.389       1.947       1.486       1.007      0.5136      1.0125E-02
   4    9.988       9.393       8.784       8.151       7.486       6.778       6.020       5.213       4.386       3.647    
        3.317       3.085       2.842       2.554       2.217       1.834       1.414      0.9644      0.4936      9.7300E-03
   5    9.988       9.381       8.755       8.099       7.393       6.610       5.705       4.594       3.107      0.8667    
        2.011       2.441       2.508       2.373       2.114       1.774       1.379      0.9446      0.4847      9.5531E-03
   6    9.988       9.394       8.786       8.155       7.491       6.784       6.027       5.221       4.394       3.655    
        3.325       3.093       2.849       2.561       2.222       1.838       1.417      0.9665      0.4947      9.7508E-03
   7    9.989       9.423       8.847       8.258       7.653       7.031       6.396       5.757       5.136       4.566    
        4.081       3.650       3.240       2.828       2.402       1.958       1.494       1.012      0.5164      1.0179E-02
   8    9.989       9.451       8.906       8.353       7.793       7.226       6.657       6.090       5.533       4.997    
        4.486       3.995       3.515       3.039       2.558       2.069       1.569       1.059      0.5388      1.0622E-02
   9    9.990       9.471       8.947       8.418       7.885       7.348       6.810       6.273       5.740       5.214    
        4.696       4.185       3.677       3.170       2.660       2.145       1.623       1.093      0.5554      1.0950E-02
  10    9.990       9.481       8.967       8.450       7.929       7.405       6.879       6.353       5.829       5.306    
        4.786       4.268       3.750       3.231       2.709       2.182       1.649       1.110      0.5638      1.1117E-02

 HEAD WILL BE SAVED ON UNIT   51 AT END OF TIME STEP  99, STRESS PERIOD    3

 DRAWDOWN WILL BE SAVED ON UNIT   52 AT END OF TIME STEP  99, STRESS PERIOD    3
1
  VOLUMETRIC BUDGET FOR ENTIRE MODEL AT END OF TIME STEP 99 IN STRESS PERIOD   3
  ------------------------------------------------------------------------------

     CUMULATIVE VOLUMES      L**3       RATES FOR THIS TIME STEP      L**3/T
     ------------------                 ------------------------

           IN:                                      IN:
           ---                                      ---
             STORAGE =       44000.0703               STORAGE =         350.4924
       CONSTANT HEAD =           0.0000         CONSTANT HEAD =           0.0000
               WELLS =           0.0000                 WELLS =           0.0000
     HEAD DEP BOUNDS =      118948.6562       HEAD DEP BOUNDS =         665.8096

            TOTAL IN =      162948.7188              TOTAL IN =        1016.3020

          OUT:                                     OUT:
          ----                                     ----
             STORAGE =           0.1866               STORAGE =           0.0000
       CONSTANT HEAD =           0.0000         CONSTANT HEAD =           0.0000
               WELLS =       49500.0000                 WELLS =         500.0000
     HEAD DEP BOUNDS =      113450.3750       HEAD DEP BOUNDS =         516.3040

           TOTAL OUT =      162950.5625             TOTAL OUT =        1016.3040

            IN - OUT =          -1.8438              IN - OUT =      -1.9531E-03

 PERCENT DISCREPANCY =           0.00     PERCENT DISCREPANCY =           0.00






          TIME SUMMARY AT END OF TIME STEP  99 IN STRESS PERIOD    3
                    SECONDS     MINUTES      HOURS       DAYS        YEARS
                    -----------------------------------------------------------
   TIME STEP LENGTH  86400.      1440.0      24.000      1.0000     2.73785E-03
 STRESS PERIOD TIME 8.55360E+06 1.42560E+05  2376.0      99.000     0.27105    
         TOTAL TIME 1.72800E+07 2.88000E+05  4800.0      200.00     0.54757    
1
 
 SOLVING FOR HEAD 

 OUTPUT CONTROL FOR STRESS PERIOD    3   TIME STEP 100
    SAVE HEAD FOR ALL LAYERS
    SAVE DRAWDOWN FOR ALL LAYERS
    SAVE BUDGET
    PRINT HEAD FOR ALL LAYERS
    PRINT BUDGET
 UBDSV1 SAVING "         STORAGE" ON UNIT  53 AT TIME STEP100, STRESS PERIOD   3
 UBDSV2 SAVING "   CONSTANT HEAD" ON UNIT  53 AT TIME STEP100, STRESS PERIOD   3
 UBDSV1 SAVING "FLOW RIGHT FACE " ON UNIT  53 AT TIME STEP100, STRESS PERIOD   3
 UBDSV1 SAVING "FLOW FRONT FACE " ON UNIT  53 AT TIME STEP100, STRESS PERIOD   3
1
              HEAD IN LAYER   1 AT END OF TIME STEP 100 IN STRESS PERIOD    3
  ---------------------------------------------------------------------------

            1           2           3           4           5           6           7           8           9          10
           11          12          13          14          15          16          17          18          19          20
 ........................................................................................................................
   1    9.989       9.457       8.919       8.376       7.828       7.278       6.728       6.181       5.641       5.112    
        4.596       4.090       3.592       3.096       2.598       2.096       1.586       1.069      0.5433      1.0710E-02
   2    9.989       9.443       8.890       8.330       7.762       7.189       6.613       6.041       5.482       4.944    
        4.433       3.945       3.470       2.999       2.524       2.042       1.549       1.046      0.5320      1.0488E-02
   3    9.989       9.418       8.838       8.245       7.636       7.011       6.372       5.731       5.109       4.538    
        4.054       3.624       3.215       2.806       2.384       1.943       1.483       1.005      0.5125      1.0103E-02
   4    9.988       9.392       8.781       8.148       7.481       6.773       6.014       5.206       4.379       3.639    
        3.309       3.078       2.836       2.548       2.212       1.830       1.411      0.9621      0.4925      9.7067E-03
   5    9.988       9.379       8.753       8.096       7.388       6.605       5.699       4.588       3.100      0.8587    
        2.004       2.434       2.501       2.366       2.108       1.769       1.375      0.9423      0.4834      9.5291E-03
   6    9.988       9.393       8.784       8.152       7.486       6.779       6.021       5.214       4.387       3.648    
        3.317       3.086       2.843       2.555       2.217       1.834       1.414      0.9642      0.4935      9.7281E-03
   7    9.989       9.422       8.845       8.255       7.649       7.027       6.391       5.751       5.130       4.560    
        4.075       3.644       3.234       2.823       2.398       1.954       1.491       1.010      0.5154      1.0159E-02
   8    9.989       9.450       8.904       8.351       7.790       7.223       6.653       6.085       5.528       4.992    
        4.481       3.990       3.511       3.035       2.554       2.066       1.567       1.057      0.5380      1.0606E-02
   9    9.990       9.470       8.946       8.416       7.882       7.345       6.807       6.269       5.736       5.210    
        4.692       4.181       3.674       3.167       2.657       2.142       1.621       1.092      0.5547      1.0937E-02
  10    9.990       9.480       8.966       8.448       7.927       7.402       6.876       6.350       5.825       5.303    
        4.783       4.265       3.747       3.228       2.706       2.180       1.648       1.109      0.5632      1.1106E-02

 HEAD WILL BE SAVED ON UNIT   51 AT END OF TIME STEP 100, STRESS PERIOD    3

 DRAWDOWN WILL BE SAVED ON UNIT   52 AT END OF TIME STEP 100, STRESS PERIOD    3
1
  VOLUMETRIC BUDGET FOR ENTIRE MODEL AT END OF TIME STEP100 IN STRESS PERIOD   3
  ------------------------------------------------------------------------------

     CUMULATIVE VOLUMES      L**3       RATES FOR THIS TIME STEP      L**3/T
     ------------------                 ------------------------

           IN:                                      IN:
           ---                                      ---
             STORAGE =       44348.5625               STORAGE =         348.4930
       CONSTANT HEAD =           0.0000         CONSTANT HEAD =           0.0000
               WELLS =           0.0000                 WELLS =           0.0000
     HEAD DEP BOUNDS =      119615.5312       HEAD DEP BOUNDS =         666.8756

            TOTAL IN =      163964.0938              TOTAL IN =        1015.3687

          OUT:                                     OUT:
          ----                                     ----
             STORAGE =           0.1866               STORAGE =           0.0000
       CONSTANT HEAD =           0.0000         CONSTANT HEAD =           0.0000
               WELLS =       50000.0000                 WELLS =         500.0000
     HEAD DEP BOUNDS =      113965.7422       HEAD DEP BOUNDS =         515.3646

           TOTAL OUT =      163965.9375             TOTAL OUT =        1015.3646

            IN - OUT =          -1.8438              IN - OUT =       4.0894E-03

 PERCENT DISCREPANCY =           0.00     PERCENT DISCREPANCY =           0.00






          TIME SUMMARY AT END OF TIME STEP 100 IN STRESS PERIOD    3
                    SECONDS     MINUTES      HOURS       DAYS        YEARS
                    -----------------------------------------------------------
   TIME STEP LENGTH  86400.      1440.0      24.000      1.0000     2.73785E-03
 STRESS PERIOD TIME 8.64000E+06 1.44000E+05  2400.0      100.00     0.27379    
         TOTAL TIME 1.73664E+07 2.89440E+05  4824.0      201.00     0.55031    
1

 Run end date and time (yyyy/mm/dd hh:mm:ss): 2025/04/20  6:41:41
 Elapsed run time:  0.254 Seconds

