                                  MODFLOW-2005     
      U.S. GEOLOGICAL SURVEY MODULAR FINITE-DIFFERENCE GROUND-WATER FLOW MODEL
                       VERSION 1.6.01 3/4/2009, with FMP2

 LIST FILE: transient.list
                         UNIT    2

 OPENING transient.dis
 FILE TYPE:DIS   UNIT   11   STATUS:OLD    
 FORMAT:FORMATTED              ACCESS:SEQUENTIAL          

 OPENING transient.bas
 FILE TYPE:BAS6   UNIT   13   STATUS:OLD    
 FORMAT:FORMATTED              ACCESS:SEQUENTIAL          

 OPENING transient.lpf
 FILE TYPE:LPF   UNIT   15   STATUS:OLD    
 FORMAT:FORMATTED              ACCESS:SEQUENTIAL          

 OPENING transient.pcg
 FILE TYPE:PCG   UNIT   27   STATUS:OLD    
 FORMAT:FORMATTED              ACCESS:SEQUENTIAL          

 OPENING transient.ghb
 FILE TYPE:GHB   UNIT   23   STATUS:OLD    
 FORMAT:FORMATTED              ACCESS:SEQUENTIAL          

 OPENING transient.wel
 FILE TYPE:WEL   UNIT   20   STATUS:OLD    
 FORMAT:FORMATTED              ACCESS:SEQUENTIAL          

 OPENING transient.oc
 FILE TYPE:OC   UNIT   14   STATUS:OLD    
 FORMAT:FORMATTED              ACCESS:SEQUENTIAL          

 OPENING transient.cbc
 FILE TYPE:DATA(BINARY)   UNIT   53   STATUS:REPLACE
 FORMAT:BINARY                 ACCESS:SEQUENTIAL          

 OPENING transient.hds
 FILE TYPE:DATA(BINARY)   UNIT   51   STATUS:REPLACE
 FORMAT:BINARY                 ACCESS:SEQUENTIAL          

 OPENING transient.ddn
 FILE TYPE:DATA(BINARY)   UNIT   52   STATUS:REPLACE
 FORMAT:BINARY                 ACCESS:SEQUENTIAL          

 BAS -- BASIC PACKAGE, VERSION 7, 5/2/2005 INPUT READ FROM UNIT   13

 DISCRETIZATION INPUT DATA READ FROM UNIT   11
 # DIS package for MODFLOW-2005 generated by Flopy 3.9.1
    1 LAYERS        10 ROWS        10 COLUMNS
    3 STRESS PERIOD(S) IN SIMULATION
 MODEL TIME UNIT IS DAYS
 MODEL LENGTH UNIT IS METERS
  Confining bed flag for each layer:
   0

                     DELR =   100.000    

                     DELC =   100.000    

 TOP ELEVATION OF LAYER 1 =   10.0000    

   MODEL LAYER BOTTOM EL. =  -50.0000     FOR LAYER   1


 STRESS PERIOD     LENGTH       TIME STEPS     MULTIPLIER FOR DELT    SS FLAG
 ----------------------------------------------------------------------------
        1         1.000000          1                    1.000         SS
        2         100.0000        100                    1.000         TR
        3         100.0000        100                    1.000         TR

 COMBINED STEADY-STATE AND TRANSIENT SIMULATION



 
 # BAS6 package for MODFLOW-2005 generated by Flopy 3.9.1                        
 THE FREE FORMAT OPTION HAS BEEN SELECTED



                     BOUNDARY ARRAY FOR LAYER   1
 READING ON UNIT   13 WITH FORMAT: (10I10)             

 AQUIFER HEAD WILL BE SET TO  -999.99     AT ALL NO-FLOW NODES (IBOUND=0).



                       INITIAL HEAD FOR LAYER   1
 READING ON UNIT   13 WITH FORMAT: (10E15.6)           
 # OC package for MODFLOW-2005 generated by Flopy 3.9.1

 OUTPUT CONTROL IS SPECIFIED ONLY AT TIME STEPS FOR WHICH OUTPUT IS DESIRED
 COMPACT CELL-BY-CELL BUDGET FILES WILL BE WRITTEN
 AUXILIARY DATA WILL BE SAVED IN CELL-BY-CELL BUDGET FILES
 HEAD PRINT FORMAT CODE IS   0    DRAWDOWN PRINT FORMAT CODE IS   0
 HEADS WILL BE SAVED ON UNIT   51    DRAWDOWNS WILL BE SAVED ON UNIT   52

 LPF -- LAYER-PROPERTY FLOW PACKAGE, VERSION 7, 5/2/2005
         INPUT READ FROM UNIT   15
 # LPF package for MODFLOW-2005 generated by Flopy 3.9.1
 CELL-BY-CELL FLOWS WILL BE SAVED ON UNIT   53
 HEAD AT CELLS THAT CONVERT TO DRY= -1.00000E+30
 No named parameters

   LAYER FLAGS:
 LAYER       LAYTYP        LAYAVG         CHANI        LAYVKA        LAYWET
 ---------------------------------------------------------------------------
    1             1             0     1.000E+00             0             0

   INTERPRETATION OF LAYER FLAGS:
                        INTERBLOCK     HORIZONTAL    DATA IN
         LAYER TYPE   TRANSMISSIVITY   ANISOTROPY   ARRAY VKA   WETTABILITY
 LAYER      (LAYTYP)      (LAYAVG)       (CHANI)      (LAYVKA)      (LAYWET)
 ---------------------------------------------------------------------------
    1   CONVERTIBLE      HARMONIC     1.000E+00    VERTICAL K  NON-WETTABLE

 WETTING CAPABILITY IS NOT ACTIVE IN ANY LAYER

    HYD. COND. ALONG ROWS =   1.00000     FOR LAYER   1

      VERTICAL HYD. COND. =   1.00000     FOR LAYER   1

         SPECIFIC STORAGE =  1.000000E-04 FOR LAYER   1

           SPECIFIC YIELD =  0.100000     FOR LAYER   1

 WEL -- WELL PACKAGE, VERSION 7, 5/2/2005 INPUT READ FROM UNIT   20
 # WEL package for MODFLOW-2005 generated by Flopy 3.9.1
 No named parameters
 MAXIMUM OF      1 ACTIVE WELLS AT ONE TIME


     0 Well parameters

 GHB -- GENERAL-HEAD BOUNDARY PACKAGE, VERSION 7, 5/2/2005
         INPUT READ FROM UNIT   23
 # GHB package for MODFLOW-2005 generated by Flopy 3.9.1
 No named parameters
 MAXIMUM OF     20 ACTIVE GHB CELLS AT ONE TIME


     0 GHB parameters

 PCG -- CONJUGATE-GRADIENT SOLUTION PACKAGE, VERSION 7, 5/2/2005
 # PCG package for MODFLOW-2005 generated by Flopy 3.9.1
 MAXIMUM OF     50 CALLS OF SOLUTION ROUTINE
 MAXIMUM OF     30 INTERNAL ITERATIONS PER CALL TO SOLUTION ROUTINE
 MATRIX PRECONDITIONING TYPE :    1



                                    SOLUTION BY THE CONJUGATE-GRADIENT METHOD
                                   -------------------------------------------
                    MAXIMUM NUMBER OF CALLS TO PCG ROUTINE =       50
                        MAXIMUM ITERATIONS PER CALL TO PCG =       30
                               MATRIX PRECONDITIONING TYPE =        1
        RELAXATION FACTOR (ONLY USED WITH PRECOND. TYPE 1) =    0.10000E+01
 PARAMETER OF POLYNOMIAL PRECOND. = 2 (2) OR IS CALCULATED :        0
                         HEAD CHANGE CRITERION FOR CLOSURE =    0.10000E-04
                     RESIDUAL CHANGE CRITERION FOR CLOSURE =    0.10000E-04
            PCG HEAD AND RESIDUAL CHANGE PRINTOUT INTERVAL =      999
     PRINTING FROM SOLVER IS LIMITED(1) OR SUPPRESSED (>1) =        3
                            STEADY-STATE DAMPING PARAMETER =    0.10000E+01
                               TRANSIENT DAMPING PARAMETER =    0.10000E+01
1
                            STRESS PERIOD NO.    1, LENGTH =   1.000000    
                            -----------------------------------------------

                              NUMBER OF TIME STEPS =     1

                               MULTIPLIER FOR DELT =     1.000

                            INITIAL TIME STEP SIZE =   1.000000    

 WELL NO.  LAYER   ROW   COL   STRESS RATE         
 --------------------------------------------------
      1      1      5      5       0.000    

      1 WELL 

 BOUND. NO. LAYER   ROW   COL     STAGE      CONDUCTANCE         
 ----------------------------------------------------------------
      1      1      1      1       10.00           6000.    
      2      1      1     10       0.000           5000.    
      3      1      2      1       10.00           6000.    
      4      1      2     10       0.000           5000.    
      5      1      3      1       10.00           6000.    
      6      1      3     10       0.000           5000.    
      7      1      4      1       10.00           6000.    
      8      1      4     10       0.000           5000.    
      9      1      5      1       10.00           6000.    
     10      1      5     10       0.000           5000.    
     11      1      6      1       10.00           6000.    
     12      1      6     10       0.000           5000.    
     13      1      7      1       10.00           6000.    
     14      1      7     10       0.000           5000.    
     15      1      8      1       10.00           6000.    
     16      1      8     10       0.000           5000.    
     17      1      9      1       10.00           6000.    
     18      1      9     10       0.000           5000.    
     19      1     10      1       10.00           6000.    
     20      1     10     10       0.000           5000.    

     20 GHB CELLS
 
 SOLVING FOR HEAD 

 OUTPUT CONTROL FOR STRESS PERIOD    1   TIME STEP   1
    SAVE HEAD FOR ALL LAYERS
    SAVE DRAWDOWN FOR ALL LAYERS
    SAVE BUDGET
    PRINT HEAD FOR ALL LAYERS
    PRINT BUDGET
 UBDSV2 SAVING "   CONSTANT HEAD" ON UNIT  53 AT TIME STEP  1, STRESS PERIOD   1
 UBDSV1 SAVING "FLOW RIGHT FACE " ON UNIT  53 AT TIME STEP  1, STRESS PERIOD   1
 UBDSV1 SAVING "FLOW FRONT FACE " ON UNIT  53 AT TIME STEP  1, STRESS PERIOD   1
1
              HEAD IN LAYER   1 AT END OF TIME STEP   1 IN STRESS PERIOD    1
  ---------------------------------------------------------------------------

            1           2           3           4           5           6           7           8           9          10
 ........................................................................................................................
   1    9.990       8.965       7.921       6.859       5.776       4.672       3.545       2.394       1.217      1.2194E-02
   2    9.990       8.965       7.921       6.859       5.776       4.672       3.545       2.394       1.217      1.2194E-02
   3    9.990       8.965       7.921       6.859       5.776       4.672       3.545       2.394       1.217      1.2194E-02
   4    9.990       8.965       7.921       6.859       5.776       4.672       3.545       2.394       1.217      1.2194E-02
   5    9.990       8.965       7.921       6.859       5.776       4.672       3.545       2.394       1.217      1.2194E-02
   6    9.990       8.965       7.921       6.859       5.776       4.672       3.545       2.394       1.217      1.2194E-02
   7    9.990       8.965       7.921       6.859       5.776       4.672       3.545       2.394       1.217      1.2194E-02
   8    9.990       8.965       7.921       6.859       5.776       4.672       3.545       2.394       1.217      1.2194E-02
   9    9.990       8.965       7.921       6.859       5.776       4.672       3.545       2.394       1.217      1.2194E-02
  10    9.990       8.965       7.921       6.859       5.776       4.672       3.545       2.394       1.217      1.2194E-02

 HEAD WILL BE SAVED ON UNIT   51 AT END OF TIME STEP   1, STRESS PERIOD    1

 DRAWDOWN WILL BE SAVED ON UNIT   52 AT END OF TIME STEP   1, STRESS PERIOD    1
1
  VOLUMETRIC BUDGET FOR ENTIRE MODEL AT END OF TIME STEP  1 IN STRESS PERIOD   1
  ------------------------------------------------------------------------------

     CUMULATIVE VOLUMES      L**3       RATES FOR THIS TIME STEP      L**3/T
     ------------------                 ------------------------

           IN:                                      IN:
           ---                                      ---
             STORAGE =           0.0000               STORAGE =           0.0000
       CONSTANT HEAD =           0.0000         CONSTANT HEAD =           0.0000
               WELLS =           0.0000                 WELLS =           0.0000
     HEAD DEP BOUNDS =         609.6933       HEAD DEP BOUNDS =         609.6933

            TOTAL IN =         609.6933              TOTAL IN =         609.6933

          OUT:                                     OUT:
          ----                                     ----
             STORAGE =           0.0000               STORAGE =           0.0000
       CONSTANT HEAD =           0.0000         CONSTANT HEAD =           0.0000
               WELLS =           0.0000                 WELLS =           0.0000
     HEAD DEP BOUNDS =         609.6933       HEAD DEP BOUNDS =         609.6933

           TOTAL OUT =         609.6933             TOTAL OUT =         609.6933

            IN - OUT =           0.0000              IN - OUT =           0.0000

 PERCENT DISCREPANCY =           0.00     PERCENT DISCREPANCY =           0.00






          TIME SUMMARY AT END OF TIME STEP   1 IN STRESS PERIOD    1
                    SECONDS     MINUTES      HOURS       DAYS        YEARS
                    -----------------------------------------------------------
   TIME STEP LENGTH  86400.      1440.0      24.000      1.0000     2.73785E-03
 STRESS PERIOD TIME  86400.      1440.0      24.000      1.0000     2.73785E-03
         TOTAL TIME  86400.      1440.0      24.000      1.0000     2.73785E-03
1
1
                            STRESS PERIOD NO.    2, LENGTH =   100.0000    
                            -----------------------------------------------

                              NUMBER OF TIME STEPS =   100

                               MULTIPLIER FOR DELT =     1.000

                            INITIAL TIME STEP SIZE =   1.000000    

 WELL NO.  LAYER   ROW   COL   STRESS RATE         
 --------------------------------------------------
      1      1      5      5       0.000    

      1 WELL 

 BOUND. NO. LAYER   ROW   COL     STAGE      CONDUCTANCE         
 ----------------------------------------------------------------
      1      1      1      1       10.00           6000.    
      2      1      1     10       0.000           5000.    
      3      1      2      1       10.00           6000.    
      4      1      2     10       0.000           5000.    
      5      1      3      1       10.00           6000.    
      6      1      3     10       0.000           5000.    
      7      1      4      1       10.00           6000.    
      8      1      4     10       0.000           5000.    
      9      1      5      1       10.00           6000.    
     10      1      5     10       0.000           5000.    
     11      1      6      1       10.00           6000.    
     12      1      6     10       0.000           5000.    
     13      1      7      1       10.00           6000.    
     14      1      7     10       0.000           5000.    
     15      1      8      1       10.00           6000.    
     16      1      8     10       0.000           5000.    
     17      1      9      1       10.00           6000.    
     18      1      9     10       0.000           5000.    
     19      1     10      1       10.00           6000.    
     20      1     10     10       0.000           5000.    

     20 GHB CELLS
 
 SOLVING FOR HEAD 

 OUTPUT CONTROL FOR STRESS PERIOD    2   TIME STEP   1
    SAVE HEAD FOR ALL LAYERS
    SAVE DRAWDOWN FOR ALL LAYERS
    SAVE BUDGET
    PRINT HEAD FOR ALL LAYERS
    PRINT BUDGET
 UBDSV1 SAVING "         STORAGE" ON UNIT  53 AT TIME STEP  1, STRESS PERIOD   2
 UBDSV2 SAVING "   CONSTANT HEAD" ON UNIT  53 AT TIME STEP  1, STRESS PERIOD   2
 UBDSV1 SAVING "FLOW RIGHT FACE " ON UNIT  53 AT TIME STEP  1, STRESS PERIOD   2
 UBDSV1 SAVING "FLOW FRONT FACE " ON UNIT  53 AT TIME STEP  1, STRESS PERIOD   2
1
              HEAD IN LAYER   1 AT END OF TIME STEP   1 IN STRESS PERIOD    2
  ---------------------------------------------------------------------------

            1           2           3           4           5           6           7           8           9          10
 ........................................................................................................................
   1    9.990       8.965       7.921       6.859       5.776       4.672       3.545       2.394       1.217      1.2194E-02
   2    9.990       8.965       7.921       6.859       5.776       4.672       3.545       2.394       1.217      1.2194E-02
   3    9.990       8.965       7.921       6.859       5.776       4.672       3.545       2.394       1.217      1.2194E-02
   4    9.990       8.965       7.921       6.859       5.776       4.672       3.545       2.394       1.217      1.2194E-02
   5    9.990       8.965       7.921       6.859       5.776       4.672       3.545       2.394       1.217      1.2194E-02
   6    9.990       8.965       7.921       6.859       5.776       4.672       3.545       2.394       1.217      1.2194E-02
   7    9.990       8.965       7.921       6.859       5.776       4.672       3.545       2.394       1.217      1.2194E-02
   8    9.990       8.965       7.921       6.859       5.776       4.672       3.545       2.394       1.217      1.2194E-02
   9    9.990       8.965       7.921       6.859       5.776       4.672       3.545       2.394       1.217      1.2194E-02
  10    9.990       8.965       7.921       6.859       5.776       4.672       3.545       2.394       1.217      1.2194E-02

 HEAD WILL BE SAVED ON UNIT   51 AT END OF TIME STEP   1, STRESS PERIOD    2

 DRAWDOWN WILL BE SAVED ON UNIT   52 AT END OF TIME STEP   1, STRESS PERIOD    2
1
  VOLUMETRIC BUDGET FOR ENTIRE MODEL AT END OF TIME STEP  1 IN STRESS PERIOD   2
  ------------------------------------------------------------------------------

     CUMULATIVE VOLUMES      L**3       RATES FOR THIS TIME STEP      L**3/T
     ------------------                 ------------------------

           IN:                                      IN:
           ---                                      ---
             STORAGE =       9.7656E-03               STORAGE =       9.7656E-03
       CONSTANT HEAD =           0.0000         CONSTANT HEAD =           0.0000
               WELLS =           0.0000                 WELLS =           0.0000
     HEAD DEP BOUNDS =        1219.4080       HEAD DEP BOUNDS =         609.7146

            TOTAL IN =        1219.4177              TOTAL IN =         609.7244

          OUT:                                     OUT:
          ----                                     ----
             STORAGE =       4.4212E-03               STORAGE =       4.4212E-03
       CONSTANT HEAD =           0.0000         CONSTANT HEAD =           0.0000
               WELLS =           0.0000                 WELLS =           0.0000
     HEAD DEP BOUNDS =        1219.3821       HEAD DEP BOUNDS =         609.6888

           TOTAL OUT =        1219.3865             TOTAL OUT =         609.6932

            IN - OUT =       3.1250E-02              IN - OUT =       3.1128E-02

 PERCENT DISCREPANCY =           0.00     PERCENT DISCREPANCY =           0.01






          TIME SUMMARY AT END OF TIME STEP   1 IN STRESS PERIOD    2
                    SECONDS     MINUTES      HOURS       DAYS        YEARS
                    -----------------------------------------------------------
   TIME STEP LENGTH  86400.      1440.0      24.000      1.0000     2.73785E-03
 STRESS PERIOD TIME  86400.      1440.0      24.000      1.0000     2.73785E-03
         TOTAL TIME 1.72800E+05  2880.0      48.000      2.0000     5.47570E-03
1
 
 SOLVING FOR HEAD 

 OUTPUT CONTROL FOR STRESS PERIOD    2   TIME STEP   2
    SAVE HEAD FOR ALL LAYERS
    SAVE DRAWDOWN FOR ALL LAYERS
    SAVE BUDGET
    PRINT HEAD FOR ALL LAYERS
    PRINT BUDGET
 UBDSV1 SAVING "         STORAGE" ON UNIT  53 AT TIME STEP  2, STRESS PERIOD   2
 UBDSV2 SAVING "   CONSTANT HEAD" ON UNIT  53 AT TIME STEP  2, STRESS PERIOD   2
 UBDSV1 SAVING "FLOW RIGHT FACE " ON UNIT  53 AT TIME STEP  2, STRESS PERIOD   2
 UBDSV1 SAVING "FLOW FRONT FACE " ON UNIT  53 AT TIME STEP  2, STRESS PERIOD   2
1
              HEAD IN LAYER   1 AT END OF TIME STEP   2 IN STRESS PERIOD    2
  ---------------------------------------------------------------------------

            1           2           3           4           5           6           7           8           9          10
 ........................................................................................................................
   1    9.990       8.965       7.921       6.859       5.776       4.672       3.545       2.394       1.217      1.2194E-02
   2    9.990       8.965       7.921       6.859       5.776       4.672       3.545       2.394       1.217      1.2194E-02
   3    9.990       8.965       7.921       6.859       5.776       4.672       3.545       2.394       1.217      1.2194E-02
   4    9.990       8.965       7.921       6.859       5.776       4.672       3.545       2.394       1.217      1.2194E-02
   5    9.990       8.965       7.921       6.859       5.776       4.672       3.545       2.394       1.217      1.2194E-02
   6    9.990       8.965       7.921       6.859       5.776       4.672       3.545       2.394       1.217      1.2194E-02
   7    9.990       8.965       7.921       6.859       5.776       4.672       3.545       2.394       1.217      1.2194E-02
   8    9.990       8.965       7.921       6.859       5.776       4.672       3.545       2.394       1.217      1.2194E-02
   9    9.990       8.965       7.921       6.859       5.776       4.672       3.545       2.394       1.217      1.2194E-02
  10    9.990       8.965       7.921       6.859       5.776       4.672       3.545       2.394       1.217      1.2194E-02

 HEAD WILL BE SAVED ON UNIT   51 AT END OF TIME STEP   2, STRESS PERIOD    2

 DRAWDOWN WILL BE SAVED ON UNIT   52 AT END OF TIME STEP   2, STRESS PERIOD    2
1
  VOLUMETRIC BUDGET FOR ENTIRE MODEL AT END OF TIME STEP  2 IN STRESS PERIOD   2
  ------------------------------------------------------------------------------

     CUMULATIVE VOLUMES      L**3       RATES FOR THIS TIME STEP      L**3/T
     ------------------                 ------------------------

           IN:                                      IN:
           ---                                      ---
             STORAGE =       9.7656E-03               STORAGE =           0.0000
       CONSTANT HEAD =           0.0000         CONSTANT HEAD =           0.0000
               WELLS =           0.0000                 WELLS =           0.0000
     HEAD DEP BOUNDS =        1829.1226       HEAD DEP BOUNDS =         609.7147

            TOTAL IN =        1829.1323              TOTAL IN =         609.7147

          OUT:                                     OUT:
          ----                                     ----
             STORAGE =       9.8190E-03               STORAGE =       5.3978E-03
       CONSTANT HEAD =           0.0000         CONSTANT HEAD =           0.0000
               WELLS =           0.0000                 WELLS =           0.0000
     HEAD DEP BOUNDS =        1829.0709       HEAD DEP BOUNDS =         609.6888

           TOTAL OUT =        1829.0807             TOTAL OUT =         609.6942

            IN - OUT =       5.1636E-02              IN - OUT =       2.0447E-02

 PERCENT DISCREPANCY =           0.00     PERCENT DISCREPANCY =           0.00






          TIME SUMMARY AT END OF TIME STEP   2 IN STRESS PERIOD    2
                    SECONDS     MINUTES      HOURS       DAYS        YEARS
                    -----------------------------------------------------------
   TIME STEP LENGTH  86400.      1440.0      24.000      1.0000     2.73785E-03
 STRESS PERIOD TIME 1.72800E+05  2880.0      48.000      2.0000     5.47570E-03
         TOTAL TIME 2.59200E+05  4320.0      72.000      3.0000     8.21355E-03
1
 
 SOLVING FOR HEAD 

 OUTPUT CONTROL FOR STRESS PERIOD    2   TIME STEP   3
    SAVE HEAD FOR ALL LAYERS
    SAVE DRAWDOWN FOR ALL LAYERS
    SAVE BUDGET
    PRINT HEAD FOR ALL LAYERS
    PRINT BUDGET
 UBDSV1 SAVING "         STORAGE" ON UNIT  53 AT TIME STEP  3, STRESS PERIOD   2
 UBDSV2 SAVING "   CONSTANT HEAD" ON UNIT  53 AT TIME STEP  3, STRESS PERIOD   2
 UBDSV1 SAVING "FLOW RIGHT FACE " ON UNIT  53 AT TIME STEP  3, STRESS PERIOD   2
 UBDSV1 SAVING "FLOW FRONT FACE " ON UNIT  53 AT TIME STEP  3, STRESS PERIOD   2
1
              HEAD IN LAYER   1 AT END OF TIME STEP   3 IN STRESS PERIOD    2
  ---------------------------------------------------------------------------

            1           2           3           4           5           6           7           8           9          10
 ........................................................................................................................
   1    9.990       8.965       7.921       6.859       5.776       4.672       3.545       2.394       1.217      1.2194E-02
   2    9.990       8.965       7.921       6.859       5.776       4.672       3.545       2.394       1.217      1.2194E-02
   3    9.990       8.965       7.921       6.859       5.776       4.672       3.545       2.394       1.217      1.2194E-02
   4    9.990       8.965       7.921       6.859       5.776       4.672       3.545       2.394       1.217      1.2194E-02
   5    9.990       8.965       7.921       6.859       5.776       4.672       3.545       2.394       1.217      1.2194E-02
   6    9.990       8.965       7.921       6.859       5.776       4.672       3.545       2.394       1.217      1.2194E-02
   7    9.990       8.965       7.921       6.859       5.776       4.672       3.545       2.394       1.217      1.2194E-02
   8    9.990       8.965       7.921       6.859       5.776       4.672       3.545       2.394       1.217      1.2194E-02
   9    9.990       8.965       7.921       6.859       5.776       4.672       3.545       2.394       1.217      1.2194E-02
  10    9.990       8.965       7.921       6.859       5.776       4.672       3.545       2.394       1.217      1.2194E-02

 HEAD WILL BE SAVED ON UNIT   51 AT END OF TIME STEP   3, STRESS PERIOD    2

 DRAWDOWN WILL BE SAVED ON UNIT   52 AT END OF TIME STEP   3, STRESS PERIOD    2
1
  VOLUMETRIC BUDGET FOR ENTIRE MODEL AT END OF TIME STEP  3 IN STRESS PERIOD   2
  ------------------------------------------------------------------------------

     CUMULATIVE VOLUMES      L**3       RATES FOR THIS TIME STEP      L**3/T
     ------------------                 ------------------------

           IN:                                      IN:
           ---                                      ---
             STORAGE =       9.7656E-03               STORAGE =           0.0000
       CONSTANT HEAD =           0.0000         CONSTANT HEAD =           0.0000
               WELLS =           0.0000                 WELLS =           0.0000
     HEAD DEP BOUNDS =        2438.8372       HEAD DEP BOUNDS =         609.7147

            TOTAL IN =        2438.8469              TOTAL IN =         609.7147

          OUT:                                     OUT:
          ----                                     ----
             STORAGE =       1.5217E-02               STORAGE =       5.3978E-03
       CONSTANT HEAD =           0.0000         CONSTANT HEAD =           0.0000
               WELLS =           0.0000                 WELLS =           0.0000
     HEAD DEP BOUNDS =        2438.7598       HEAD DEP BOUNDS =         609.6888

           TOTAL OUT =        2438.7749             TOTAL OUT =         609.6942

            IN - OUT =       7.2021E-02              IN - OUT =       2.0447E-02

 PERCENT DISCREPANCY =           0.00     PERCENT DISCREPANCY =           0.00






          TIME SUMMARY AT END OF TIME STEP   3 IN STRESS PERIOD    2
                    SECONDS     MINUTES      HOURS       DAYS        YEARS
                    -----------------------------------------------------------
   TIME STEP LENGTH  86400.      1440.0      24.000      1.0000     2.73785E-03
 STRESS PERIOD TIME 2.59200E+05  4320.0      72.000      3.0000     8.21355E-03
         TOTAL TIME 3.45600E+05  5760.0      96.000      4.0000     1.09514E-02
1
 
 SOLVING FOR HEAD 

 OUTPUT CONTROL FOR STRESS PERIOD    2   TIME STEP   4
    SAVE HEAD FOR ALL LAYERS
    SAVE DRAWDOWN FOR ALL LAYERS
    SAVE BUDGET
    PRINT HEAD FOR ALL LAYERS
    PRINT BUDGET
 UBDSV1 SAVING "         STORAGE" ON UNIT  53 AT TIME STEP  4, STRESS PERIOD   2
 UBDSV2 SAVING "   CONSTANT HEAD" ON UNIT  53 AT TIME STEP  4, STRESS PERIOD   2
 UBDSV1 SAVING "FLOW RIGHT FACE " ON UNIT  53 AT TIME STEP  4, STRESS PERIOD   2
 UBDSV1 SAVING "FLOW FRONT FACE " ON UNIT  53 AT TIME STEP  4, STRESS PERIOD   2
1
              HEAD IN LAYER   1 AT END OF TIME STEP   4 IN STRESS PERIOD    2
  ---------------------------------------------------------------------------

            1           2           3           4           5           6           7           8           9          10
 ........................................................................................................................
   1    9.990       8.965       7.921       6.859       5.776       4.672       3.545       2.394       1.217      1.2194E-02
   2    9.990       8.965       7.921       6.859       5.776       4.672       3.545       2.394       1.217      1.2194E-02
   3    9.990       8.965       7.921       6.859       5.776       4.672       3.545       2.394       1.217      1.2194E-02
   4    9.990       8.965       7.921       6.859       5.776       4.672       3.545       2.394       1.217      1.2194E-02
   5    9.990       8.965       7.921       6.859       5.776       4.672       3.545       2.394       1.217      1.2194E-02
   6    9.990       8.965       7.921       6.859       5.776       4.672       3.545       2.394       1.217      1.2194E-02
   7    9.990       8.965       7.921       6.859       5.776       4.672       3.545       2.394       1.217      1.2194E-02
   8    9.990       8.965       7.921       6.859       5.776       4.672       3.545       2.394       1.217      1.2194E-02
   9    9.990       8.965       7.921       6.859       5.776       4.672       3.545       2.394       1.217      1.2194E-02
  10    9.990       8.965       7.921       6.859       5.776       4.672       3.545       2.394       1.217      1.2194E-02

 HEAD WILL BE SAVED ON UNIT   51 AT END OF TIME STEP   4, STRESS PERIOD    2

 DRAWDOWN WILL BE SAVED ON UNIT   52 AT END OF TIME STEP   4, STRESS PERIOD    2
1
  VOLUMETRIC BUDGET FOR ENTIRE MODEL AT END OF TIME STEP  4 IN STRESS PERIOD   2
  ------------------------------------------------------------------------------

     CUMULATIVE VOLUMES      L**3       RATES FOR THIS TIME STEP      L**3/T
     ------------------                 ------------------------

           IN:                                      IN:
           ---                                      ---
             STORAGE =       9.7656E-03               STORAGE =           0.0000
       CONSTANT HEAD =           0.0000         CONSTANT HEAD =           0.0000
               WELLS =           0.0000                 WELLS =           0.0000
     HEAD DEP BOUNDS =        3048.5518       HEAD DEP BOUNDS =         609.7147

            TOTAL IN =        3048.5615              TOTAL IN =         609.7147

          OUT:                                     OUT:
          ----                                     ----
             STORAGE =       2.0615E-02               STORAGE =       5.3978E-03
       CONSTANT HEAD =           0.0000         CONSTANT HEAD =           0.0000
               WELLS =           0.0000                 WELLS =           0.0000
     HEAD DEP BOUNDS =        3048.4487       HEAD DEP BOUNDS =         609.6888

           TOTAL OUT =        3048.4692             TOTAL OUT =         609.6942

            IN - OUT =       9.2285E-02              IN - OUT =       2.0447E-02

 PERCENT DISCREPANCY =           0.00     PERCENT DISCREPANCY =           0.00






          TIME SUMMARY AT END OF TIME STEP   4 IN STRESS PERIOD    2
                    SECONDS     MINUTES      HOURS       DAYS        YEARS
                    -----------------------------------------------------------
   TIME STEP LENGTH  86400.      1440.0      24.000      1.0000     2.73785E-03
 STRESS PERIOD TIME 3.45600E+05  5760.0      96.000      4.0000     1.09514E-02
         TOTAL TIME 4.32000E+05  7200.0      120.00      5.0000     1.36893E-02
1
 
 SOLVING FOR HEAD 

 OUTPUT CONTROL FOR STRESS PERIOD    2   TIME STEP   5
    SAVE HEAD FOR ALL LAYERS
    SAVE DRAWDOWN FOR ALL LAYERS
    SAVE BUDGET
    PRINT HEAD FOR ALL LAYERS
    PRINT BUDGET
 UBDSV1 SAVING "         STORAGE" ON UNIT  53 AT TIME STEP  5, STRESS PERIOD   2
 UBDSV2 SAVING "   CONSTANT HEAD" ON UNIT  53 AT TIME STEP  5, STRESS PERIOD   2
 UBDSV1 SAVING "FLOW RIGHT FACE " ON UNIT  53 AT TIME STEP  5, STRESS PERIOD   2
 UBDSV1 SAVING "FLOW FRONT FACE " ON UNIT  53 AT TIME STEP  5, STRESS PERIOD   2
1
              HEAD IN LAYER   1 AT END OF TIME STEP   5 IN STRESS PERIOD    2
  ---------------------------------------------------------------------------

            1           2           3           4           5           6           7           8           9          10
 ........................................................................................................................
   1    9.990       8.965       7.921       6.859       5.776       4.672       3.545       2.394       1.217      1.2194E-02
   2    9.990       8.965       7.921       6.859       5.776       4.672       3.545       2.394       1.217      1.2194E-02
   3    9.990       8.965       7.921       6.859       5.776       4.672       3.545       2.394       1.217      1.2194E-02
   4    9.990       8.965       7.921       6.859       5.776       4.672       3.545       2.394       1.217      1.2194E-02
   5    9.990       8.965       7.921       6.859       5.776       4.672       3.545       2.394       1.217      1.2194E-02
   6    9.990       8.965       7.921       6.859       5.776       4.672       3.545       2.394       1.217      1.2194E-02
   7    9.990       8.965       7.921       6.859       5.776       4.672       3.545       2.394       1.217      1.2194E-02
   8    9.990       8.965       7.921       6.859       5.776       4.672       3.545       2.394       1.217      1.2194E-02
   9    9.990       8.965       7.921       6.859       5.776       4.672       3.545       2.394       1.217      1.2194E-02
  10    9.990       8.965       7.921       6.859       5.776       4.672       3.545       2.394       1.217      1.2194E-02

 HEAD WILL BE SAVED ON UNIT   51 AT END OF TIME STEP   5, STRESS PERIOD    2

 DRAWDOWN WILL BE SAVED ON UNIT   52 AT END OF TIME STEP   5, STRESS PERIOD    2
1
  VOLUMETRIC BUDGET FOR ENTIRE MODEL AT END OF TIME STEP  5 IN STRESS PERIOD   2
  ------------------------------------------------------------------------------

     CUMULATIVE VOLUMES      L**3       RATES FOR THIS TIME STEP      L**3/T
     ------------------                 ------------------------

           IN:                                      IN:
           ---                                      ---
             STORAGE =       9.7656E-03               STORAGE =           0.0000
       CONSTANT HEAD =           0.0000         CONSTANT HEAD =           0.0000
               WELLS =           0.0000                 WELLS =           0.0000
     HEAD DEP BOUNDS =        3658.2664       HEAD DEP BOUNDS =         609.7147

            TOTAL IN =        3658.2761              TOTAL IN =         609.7147

          OUT:                                     OUT:
          ----                                     ----
             STORAGE =       2.6012E-02               STORAGE =       5.3978E-03
       CONSTANT HEAD =           0.0000         CONSTANT HEAD =           0.0000
               WELLS =           0.0000                 WELLS =           0.0000
     HEAD DEP BOUNDS =        3658.1377       HEAD DEP BOUNDS =         609.6888

           TOTAL OUT =        3658.1638             TOTAL OUT =         609.6942

            IN - OUT =           0.1123              IN - OUT =       2.0447E-02

 PERCENT DISCREPANCY =           0.00     PERCENT DISCREPANCY =           0.00






          TIME SUMMARY AT END OF TIME STEP   5 IN STRESS PERIOD    2
                    SECONDS     MINUTES      HOURS       DAYS        YEARS
                    -----------------------------------------------------------
   TIME STEP LENGTH  86400.      1440.0      24.000      1.0000     2.73785E-03
 STRESS PERIOD TIME 4.32000E+05  7200.0      120.00      5.0000     1.36893E-02
         TOTAL TIME 5.18400E+05  8640.0      144.00      6.0000     1.64271E-02
1
 
 SOLVING FOR HEAD 

 OUTPUT CONTROL FOR STRESS PERIOD    2   TIME STEP   6
    SAVE HEAD FOR ALL LAYERS
    SAVE DRAWDOWN FOR ALL LAYERS
    SAVE BUDGET
    PRINT HEAD FOR ALL LAYERS
    PRINT BUDGET
 UBDSV1 SAVING "         STORAGE" ON UNIT  53 AT TIME STEP  6, STRESS PERIOD   2
 UBDSV2 SAVING "   CONSTANT HEAD" ON UNIT  53 AT TIME STEP  6, STRESS PERIOD   2
 UBDSV1 SAVING "FLOW RIGHT FACE " ON UNIT  53 AT TIME STEP  6, STRESS PERIOD   2
 UBDSV1 SAVING "FLOW FRONT FACE " ON UNIT  53 AT TIME STEP  6, STRESS PERIOD   2
1
              HEAD IN LAYER   1 AT END OF TIME STEP   6 IN STRESS PERIOD    2
  ---------------------------------------------------------------------------

            1           2           3           4           5           6           7           8           9          10
 ........................................................................................................................
   1    9.990       8.965       7.921       6.859       5.776       4.672       3.545       2.394       1.217      1.2194E-02
   2    9.990       8.965       7.921       6.859       5.776       4.672       3.545       2.394       1.217      1.2194E-02
   3    9.990       8.965       7.921       6.859       5.776       4.672       3.545       2.394       1.217      1.2194E-02
   4    9.990       8.965       7.921       6.859       5.776       4.672       3.545       2.394       1.217      1.2194E-02
   5    9.990       8.965       7.921       6.859       5.776       4.672       3.545       2.394       1.217      1.2194E-02
   6    9.990       8.965       7.921       6.859       5.776       4.672       3.545       2.394       1.217      1.2194E-02
   7    9.990       8.965       7.921       6.859       5.776       4.672       3.545       2.394       1.217      1.2194E-02
   8    9.990       8.965       7.921       6.859       5.776       4.672       3.545       2.394       1.217      1.2194E-02
   9    9.990       8.965       7.921       6.859       5.776       4.672       3.545       2.394       1.217      1.2194E-02
  10    9.990       8.965       7.921       6.859       5.776       4.672       3.545       2.394       1.217      1.2194E-02

 HEAD WILL BE SAVED ON UNIT   51 AT END OF TIME STEP   6, STRESS PERIOD    2

 DRAWDOWN WILL BE SAVED ON UNIT   52 AT END OF TIME STEP   6, STRESS PERIOD    2
1
  VOLUMETRIC BUDGET FOR ENTIRE MODEL AT END OF TIME STEP  6 IN STRESS PERIOD   2
  ------------------------------------------------------------------------------

     CUMULATIVE VOLUMES      L**3       RATES FOR THIS TIME STEP      L**3/T
     ------------------                 ------------------------

           IN:                                      IN:
           ---                                      ---
             STORAGE =       9.7656E-03               STORAGE =           0.0000
       CONSTANT HEAD =           0.0000         CONSTANT HEAD =           0.0000
               WELLS =           0.0000                 WELLS =           0.0000
     HEAD DEP BOUNDS =        4267.9810       HEAD DEP BOUNDS =         609.7147

            TOTAL IN =        4267.9907              TOTAL IN =         609.7147

          OUT:                                     OUT:
          ----                                     ----
             STORAGE =       3.1410E-02               STORAGE =       5.3978E-03
       CONSTANT HEAD =           0.0000         CONSTANT HEAD =           0.0000
               WELLS =           0.0000                 WELLS =           0.0000
     HEAD DEP BOUNDS =        4267.8267       HEAD DEP BOUNDS =         609.6888

           TOTAL OUT =        4267.8579             TOTAL OUT =         609.6942

            IN - OUT =           0.1328              IN - OUT =       2.0447E-02

 PERCENT DISCREPANCY =           0.00     PERCENT DISCREPANCY =           0.00






          TIME SUMMARY AT END OF TIME STEP   6 IN STRESS PERIOD    2
                    SECONDS     MINUTES      HOURS       DAYS        YEARS
                    -----------------------------------------------------------
   TIME STEP LENGTH  86400.      1440.0      24.000      1.0000     2.73785E-03
 STRESS PERIOD TIME 5.18400E+05  8640.0      144.00      6.0000     1.64271E-02
         TOTAL TIME 6.04800E+05  10080.      168.00      7.0000     1.91650E-02
1
 
 SOLVING FOR HEAD 

 OUTPUT CONTROL FOR STRESS PERIOD    2   TIME STEP   7
    SAVE HEAD FOR ALL LAYERS
    SAVE DRAWDOWN FOR ALL LAYERS
    SAVE BUDGET
    PRINT HEAD FOR ALL LAYERS
    PRINT BUDGET
 UBDSV1 SAVING "         STORAGE" ON UNIT  53 AT TIME STEP  7, STRESS PERIOD   2
 UBDSV2 SAVING "   CONSTANT HEAD" ON UNIT  53 AT TIME STEP  7, STRESS PERIOD   2
 UBDSV1 SAVING "FLOW RIGHT FACE " ON UNIT  53 AT TIME STEP  7, STRESS PERIOD   2
 UBDSV1 SAVING "FLOW FRONT FACE " ON UNIT  53 AT TIME STEP  7, STRESS PERIOD   2
1
              HEAD IN LAYER   1 AT END OF TIME STEP   7 IN STRESS PERIOD    2
  ---------------------------------------------------------------------------

            1           2           3           4           5           6           7           8           9          10
 ........................................................................................................................
   1    9.990       8.965       7.921       6.859       5.776       4.672       3.545       2.394       1.217      1.2194E-02
   2    9.990       8.965       7.921       6.859       5.776       4.672       3.545       2.394       1.217      1.2194E-02
   3    9.990       8.965       7.921       6.859       5.776       4.672       3.545       2.394       1.217      1.2194E-02
   4    9.990       8.965       7.921       6.859       5.776       4.672       3.545       2.394       1.217      1.2194E-02
   5    9.990       8.965       7.921       6.859       5.776       4.672       3.545       2.394       1.217      1.2194E-02
   6    9.990       8.965       7.921       6.859       5.776       4.672       3.545       2.394       1.217      1.2194E-02
   7    9.990       8.965       7.921       6.859       5.776       4.672       3.545       2.394       1.217      1.2194E-02
   8    9.990       8.965       7.921       6.859       5.776       4.672       3.545       2.394       1.217      1.2194E-02
   9    9.990       8.965       7.921       6.859       5.776       4.672       3.545       2.394       1.217      1.2194E-02
  10    9.990       8.965       7.921       6.859       5.776       4.672       3.545       2.394       1.217      1.2194E-02

 HEAD WILL BE SAVED ON UNIT   51 AT END OF TIME STEP   7, STRESS PERIOD    2

 DRAWDOWN WILL BE SAVED ON UNIT   52 AT END OF TIME STEP   7, STRESS PERIOD    2
1
  VOLUMETRIC BUDGET FOR ENTIRE MODEL AT END OF TIME STEP  7 IN STRESS PERIOD   2
  ------------------------------------------------------------------------------

     CUMULATIVE VOLUMES      L**3       RATES FOR THIS TIME STEP      L**3/T
     ------------------                 ------------------------

           IN:                                      IN:
           ---                                      ---
             STORAGE =       9.7656E-03               STORAGE =           0.0000
       CONSTANT HEAD =           0.0000         CONSTANT HEAD =           0.0000
               WELLS =           0.0000                 WELLS =           0.0000
     HEAD DEP BOUNDS =        4877.6958       HEAD DEP BOUNDS =         609.7147

            TOTAL IN =        4877.7056              TOTAL IN =         609.7147

          OUT:                                     OUT:
          ----                                     ----
             STORAGE =       3.6808E-02               STORAGE =       5.3978E-03
       CONSTANT HEAD =           0.0000         CONSTANT HEAD =           0.0000
               WELLS =           0.0000                 WELLS =           0.0000
     HEAD DEP BOUNDS =        4877.5156       HEAD DEP BOUNDS =         609.6888

           TOTAL OUT =        4877.5522             TOTAL OUT =         609.6942

            IN - OUT =           0.1533              IN - OUT =       2.0447E-02

 PERCENT DISCREPANCY =           0.00     PERCENT DISCREPANCY =           0.00






          TIME SUMMARY AT END OF TIME STEP   7 IN STRESS PERIOD    2
                    SECONDS     MINUTES      HOURS       DAYS        YEARS
                    -----------------------------------------------------------
   TIME STEP LENGTH  86400.      1440.0      24.000      1.0000     2.73785E-03
 STRESS PERIOD TIME 6.04800E+05  10080.      168.00      7.0000     1.91650E-02
         TOTAL TIME 6.91200E+05  11520.      192.00      8.0000     2.19028E-02
1
 
 SOLVING FOR HEAD 

 OUTPUT CONTROL FOR STRESS PERIOD    2   TIME STEP   8
    SAVE HEAD FOR ALL LAYERS
    SAVE DRAWDOWN FOR ALL LAYERS
    SAVE BUDGET
    PRINT HEAD FOR ALL LAYERS
    PRINT BUDGET
 UBDSV1 SAVING "         STORAGE" ON UNIT  53 AT TIME STEP  8, STRESS PERIOD   2
 UBDSV2 SAVING "   CONSTANT HEAD" ON UNIT  53 AT TIME STEP  8, STRESS PERIOD   2
 UBDSV1 SAVING "FLOW RIGHT FACE " ON UNIT  53 AT TIME STEP  8, STRESS PERIOD   2
 UBDSV1 SAVING "FLOW FRONT FACE " ON UNIT  53 AT TIME STEP  8, STRESS PERIOD   2
1
              HEAD IN LAYER   1 AT END OF TIME STEP   8 IN STRESS PERIOD    2
  ---------------------------------------------------------------------------

            1           2           3           4           5           6           7           8           9          10
 ........................................................................................................................
   1    9.990       8.965       7.921       6.859       5.776       4.672       3.545       2.394       1.217      1.2194E-02
   2    9.990       8.965       7.921       6.859       5.776       4.672       3.545       2.394       1.217      1.2194E-02
   3    9.990       8.965       7.921       6.859       5.776       4.672       3.545       2.394       1.217      1.2194E-02
   4    9.990       8.965       7.921       6.859       5.776       4.672       3.545       2.394       1.217      1.2194E-02
   5    9.990       8.965       7.921       6.859       5.776       4.672       3.545       2.394       1.217      1.2194E-02
   6    9.990       8.965       7.921       6.859       5.776       4.672       3.545       2.394       1.217      1.2194E-02
   7    9.990       8.965       7.921       6.859       5.776       4.672       3.545       2.394       1.217      1.2194E-02
   8    9.990       8.965       7.921       6.859       5.776       4.672       3.545       2.394       1.217      1.2194E-02
   9    9.990       8.965       7.921       6.859       5.776       4.672       3.545       2.394       1.217      1.2194E-02
  10    9.990       8.965       7.921       6.859       5.776       4.672       3.545       2.394       1.217      1.2194E-02

 HEAD WILL BE SAVED ON UNIT   51 AT END OF TIME STEP   8, STRESS PERIOD    2

 DRAWDOWN WILL BE SAVED ON UNIT   52 AT END OF TIME STEP   8, STRESS PERIOD    2
1
  VOLUMETRIC BUDGET FOR ENTIRE MODEL AT END OF TIME STEP  8 IN STRESS PERIOD   2
  ------------------------------------------------------------------------------

     CUMULATIVE VOLUMES      L**3       RATES FOR THIS TIME STEP      L**3/T
     ------------------                 ------------------------

           IN:                                      IN:
           ---                                      ---
             STORAGE =       9.7656E-03               STORAGE =           0.0000
       CONSTANT HEAD =           0.0000         CONSTANT HEAD =           0.0000
               WELLS =           0.0000                 WELLS =           0.0000
     HEAD DEP BOUNDS =        5487.4106       HEAD DEP BOUNDS =         609.7147

            TOTAL IN =        5487.4204              TOTAL IN =         609.7147

          OUT:                                     OUT:
          ----                                     ----
             STORAGE =       4.2206E-02               STORAGE =       5.3978E-03
       CONSTANT HEAD =           0.0000         CONSTANT HEAD =           0.0000
               WELLS =           0.0000                 WELLS =           0.0000
     HEAD DEP BOUNDS =        5487.2046       HEAD DEP BOUNDS =         609.6888

           TOTAL OUT =        5487.2466             TOTAL OUT =         609.6942

            IN - OUT =           0.1738              IN - OUT =       2.0447E-02

 PERCENT DISCREPANCY =           0.00     PERCENT DISCREPANCY =           0.00






          TIME SUMMARY AT END OF TIME STEP   8 IN STRESS PERIOD    2
                    SECONDS     MINUTES      HOURS       DAYS        YEARS
                    -----------------------------------------------------------
   TIME STEP LENGTH  86400.      1440.0      24.000      1.0000     2.73785E-03
 STRESS PERIOD TIME 6.91200E+05  11520.      192.00      8.0000     2.19028E-02
         TOTAL TIME 7.77600E+05  12960.      216.00      9.0000     2.46407E-02
1
 
 SOLVING FOR HEAD 

 OUTPUT CONTROL FOR STRESS PERIOD    2   TIME STEP   9
    SAVE HEAD FOR ALL LAYERS
    SAVE DRAWDOWN FOR ALL LAYERS
    SAVE BUDGET
    PRINT HEAD FOR ALL LAYERS
    PRINT BUDGET
 UBDSV1 SAVING "         STORAGE" ON UNIT  53 AT TIME STEP  9, STRESS PERIOD   2
 UBDSV2 SAVING "   CONSTANT HEAD" ON UNIT  53 AT TIME STEP  9, STRESS PERIOD   2
 UBDSV1 SAVING "FLOW RIGHT FACE " ON UNIT  53 AT TIME STEP  9, STRESS PERIOD   2
 UBDSV1 SAVING "FLOW FRONT FACE " ON UNIT  53 AT TIME STEP  9, STRESS PERIOD   2
1
              HEAD IN LAYER   1 AT END OF TIME STEP   9 IN STRESS PERIOD    2
  ---------------------------------------------------------------------------

            1           2           3           4           5           6           7           8           9          10
 ........................................................................................................................
   1    9.990       8.965       7.921       6.859       5.776       4.672       3.545       2.394       1.217      1.2194E-02
   2    9.990       8.965       7.921       6.859       5.776       4.672       3.545       2.394       1.217      1.2194E-02
   3    9.990       8.965       7.921       6.859       5.776       4.672       3.545       2.394       1.217      1.2194E-02
   4    9.990       8.965       7.921       6.859       5.776       4.672       3.545       2.394       1.217      1.2194E-02
   5    9.990       8.965       7.921       6.859       5.776       4.672       3.545       2.394       1.217      1.2194E-02
   6    9.990       8.965       7.921       6.859       5.776       4.672       3.545       2.394       1.217      1.2194E-02
   7    9.990       8.965       7.921       6.859       5.776       4.672       3.545       2.394       1.217      1.2194E-02
   8    9.990       8.965       7.921       6.859       5.776       4.672       3.545       2.394       1.217      1.2194E-02
   9    9.990       8.965       7.921       6.859       5.776       4.672       3.545       2.394       1.217      1.2194E-02
  10    9.990       8.965       7.921       6.859       5.776       4.672       3.545       2.394       1.217      1.2194E-02

 HEAD WILL BE SAVED ON UNIT   51 AT END OF TIME STEP   9, STRESS PERIOD    2

 DRAWDOWN WILL BE SAVED ON UNIT   52 AT END OF TIME STEP   9, STRESS PERIOD    2
1
  VOLUMETRIC BUDGET FOR ENTIRE MODEL AT END OF TIME STEP  9 IN STRESS PERIOD   2
  ------------------------------------------------------------------------------

     CUMULATIVE VOLUMES      L**3       RATES FOR THIS TIME STEP      L**3/T
     ------------------                 ------------------------

           IN:                                      IN:
           ---                                      ---
             STORAGE =       9.7656E-03               STORAGE =           0.0000
       CONSTANT HEAD =           0.0000         CONSTANT HEAD =           0.0000
               WELLS =           0.0000                 WELLS =           0.0000
     HEAD DEP BOUNDS =        6097.1255       HEAD DEP BOUNDS =         609.7147

            TOTAL IN =        6097.1353              TOTAL IN =         609.7147

          OUT:                                     OUT:
          ----                                     ----
             STORAGE =       4.7604E-02               STORAGE =       5.3978E-03
       CONSTANT HEAD =           0.0000         CONSTANT HEAD =           0.0000
               WELLS =           0.0000                 WELLS =           0.0000
     HEAD DEP BOUNDS =        6096.8936       HEAD DEP BOUNDS =         609.6888

           TOTAL OUT =        6096.9409             TOTAL OUT =         609.6942

            IN - OUT =           0.1943              IN - OUT =       2.0447E-02

 PERCENT DISCREPANCY =           0.00     PERCENT DISCREPANCY =           0.00






          TIME SUMMARY AT END OF TIME STEP   9 IN STRESS PERIOD    2
                    SECONDS     MINUTES      HOURS       DAYS        YEARS
                    -----------------------------------------------------------
   TIME STEP LENGTH  86400.      1440.0      24.000      1.0000     2.73785E-03
 STRESS PERIOD TIME 7.77600E+05  12960.      216.00      9.0000     2.46407E-02
         TOTAL TIME 8.64000E+05  14400.      240.00      10.000     2.73785E-02
1
 
 SOLVING FOR HEAD 

 OUTPUT CONTROL FOR STRESS PERIOD    2   TIME STEP  10
    SAVE HEAD FOR ALL LAYERS
    SAVE DRAWDOWN FOR ALL LAYERS
    SAVE BUDGET
    PRINT HEAD FOR ALL LAYERS
    PRINT BUDGET
 UBDSV1 SAVING "         STORAGE" ON UNIT  53 AT TIME STEP 10, STRESS PERIOD   2
 UBDSV2 SAVING "   CONSTANT HEAD" ON UNIT  53 AT TIME STEP 10, STRESS PERIOD   2
 UBDSV1 SAVING "FLOW RIGHT FACE " ON UNIT  53 AT TIME STEP 10, STRESS PERIOD   2
 UBDSV1 SAVING "FLOW FRONT FACE " ON UNIT  53 AT TIME STEP 10, STRESS PERIOD   2
1
              HEAD IN LAYER   1 AT END OF TIME STEP  10 IN STRESS PERIOD    2
  ---------------------------------------------------------------------------

            1           2           3           4           5           6           7           8           9          10
 ........................................................................................................................
   1    9.990       8.965       7.921       6.859       5.776       4.672       3.545       2.394       1.217      1.2194E-02
   2    9.990       8.965       7.921       6.859       5.776       4.672       3.545       2.394       1.217      1.2194E-02
   3    9.990       8.965       7.921       6.859       5.776       4.672       3.545       2.394       1.217      1.2194E-02
   4    9.990       8.965       7.921       6.859       5.776       4.672       3.545       2.394       1.217      1.2194E-02
   5    9.990       8.965       7.921       6.859       5.776       4.672       3.545       2.394       1.217      1.2194E-02
   6    9.990       8.965       7.921       6.859       5.776       4.672       3.545       2.394       1.217      1.2194E-02
   7    9.990       8.965       7.921       6.859       5.776       4.672       3.545       2.394       1.217      1.2194E-02
   8    9.990       8.965       7.921       6.859       5.776       4.672       3.545       2.394       1.217      1.2194E-02
   9    9.990       8.965       7.921       6.859       5.776       4.672       3.545       2.394       1.217      1.2194E-02
  10    9.990       8.965       7.921       6.859       5.776       4.672       3.545       2.394       1.217      1.2194E-02

 HEAD WILL BE SAVED ON UNIT   51 AT END OF TIME STEP  10, STRESS PERIOD    2

 DRAWDOWN WILL BE SAVED ON UNIT   52 AT END OF TIME STEP  10, STRESS PERIOD    2
1
  VOLUMETRIC BUDGET FOR ENTIRE MODEL AT END OF TIME STEP 10 IN STRESS PERIOD   2
  ------------------------------------------------------------------------------

     CUMULATIVE VOLUMES      L**3       RATES FOR THIS TIME STEP      L**3/T
     ------------------                 ------------------------

           IN:                                      IN:
           ---                                      ---
             STORAGE =       9.7656E-03               STORAGE =           0.0000
       CONSTANT HEAD =           0.0000         CONSTANT HEAD =           0.0000
               WELLS =           0.0000                 WELLS =           0.0000
     HEAD DEP BOUNDS =        6706.8403       HEAD DEP BOUNDS =         609.7147

            TOTAL IN =        6706.8501              TOTAL IN =         609.7147

          OUT:                                     OUT:
          ----                                     ----
             STORAGE =       5.3001E-02               STORAGE =       5.3978E-03
       CONSTANT HEAD =           0.0000         CONSTANT HEAD =           0.0000
               WELLS =           0.0000                 WELLS =           0.0000
     HEAD DEP BOUNDS =        6706.5825       HEAD DEP BOUNDS =         609.6888

           TOTAL OUT =        6706.6357             TOTAL OUT =         609.6942

            IN - OUT =           0.2144              IN - OUT =       2.0447E-02

 PERCENT DISCREPANCY =           0.00     PERCENT DISCREPANCY =           0.00






          TIME SUMMARY AT END OF TIME STEP  10 IN STRESS PERIOD    2
                    SECONDS     MINUTES      HOURS       DAYS        YEARS
                    -----------------------------------------------------------
   TIME STEP LENGTH  86400.      1440.0      24.000      1.0000     2.73785E-03
 STRESS PERIOD TIME 8.64000E+05  14400.      240.00      10.000     2.73785E-02
         TOTAL TIME 9.50400E+05  15840.      264.00      11.000     3.01164E-02
1
 
 SOLVING FOR HEAD 

 OUTPUT CONTROL FOR STRESS PERIOD    2   TIME STEP  11
    SAVE HEAD FOR ALL LAYERS
    SAVE DRAWDOWN FOR ALL LAYERS
    SAVE BUDGET
    PRINT HEAD FOR ALL LAYERS
    PRINT BUDGET
 UBDSV1 SAVING "         STORAGE" ON UNIT  53 AT TIME STEP 11, STRESS PERIOD   2
 UBDSV2 SAVING "   CONSTANT HEAD" ON UNIT  53 AT TIME STEP 11, STRESS PERIOD   2
 UBDSV1 SAVING "FLOW RIGHT FACE " ON UNIT  53 AT TIME STEP 11, STRESS PERIOD   2
 UBDSV1 SAVING "FLOW FRONT FACE " ON UNIT  53 AT TIME STEP 11, STRESS PERIOD   2
1
              HEAD IN LAYER   1 AT END OF TIME STEP  11 IN STRESS PERIOD    2
  ---------------------------------------------------------------------------

            1           2           3           4           5           6           7           8           9          10
 ........................................................................................................................
   1    9.990       8.965       7.921       6.859       5.776       4.672       3.545       2.394       1.217      1.2194E-02
   2    9.990       8.965       7.921       6.859       5.776       4.672       3.545       2.394       1.217      1.2194E-02
   3    9.990       8.965       7.921       6.859       5.776       4.672       3.545       2.394       1.217      1.2194E-02
   4    9.990       8.965       7.921       6.859       5.776       4.672       3.545       2.394       1.217      1.2194E-02
   5    9.990       8.965       7.921       6.859       5.776       4.672       3.545       2.394       1.217      1.2194E-02
   6    9.990       8.965       7.921       6.859       5.776       4.672       3.545       2.394       1.217      1.2194E-02
   7    9.990       8.965       7.921       6.859       5.776       4.672       3.545       2.394       1.217      1.2194E-02
   8    9.990       8.965       7.921       6.859       5.776       4.672       3.545       2.394       1.217      1.2194E-02
   9    9.990       8.965       7.921       6.859       5.776       4.672       3.545       2.394       1.217      1.2194E-02
  10    9.990       8.965       7.921       6.859       5.776       4.672       3.545       2.394       1.217      1.2194E-02

 HEAD WILL BE SAVED ON UNIT   51 AT END OF TIME STEP  11, STRESS PERIOD    2

 DRAWDOWN WILL BE SAVED ON UNIT   52 AT END OF TIME STEP  11, STRESS PERIOD    2
1
  VOLUMETRIC BUDGET FOR ENTIRE MODEL AT END OF TIME STEP 11 IN STRESS PERIOD   2
  ------------------------------------------------------------------------------

     CUMULATIVE VOLUMES      L**3       RATES FOR THIS TIME STEP      L**3/T
     ------------------                 ------------------------

           IN:                                      IN:
           ---                                      ---
             STORAGE =       9.7656E-03               STORAGE =           0.0000
       CONSTANT HEAD =           0.0000         CONSTANT HEAD =           0.0000
               WELLS =           0.0000                 WELLS =           0.0000
     HEAD DEP BOUNDS =        7316.5552       HEAD DEP BOUNDS =         609.7147

            TOTAL IN =        7316.5649              TOTAL IN =         609.7147

          OUT:                                     OUT:
          ----                                     ----
             STORAGE =       5.8399E-02               STORAGE =       5.3978E-03
       CONSTANT HEAD =           0.0000         CONSTANT HEAD =           0.0000
               WELLS =           0.0000                 WELLS =           0.0000
     HEAD DEP BOUNDS =        7316.2715       HEAD DEP BOUNDS =         609.6888

           TOTAL OUT =        7316.3301             TOTAL OUT =         609.6942

            IN - OUT =           0.2349              IN - OUT =       2.0447E-02

 PERCENT DISCREPANCY =           0.00     PERCENT DISCREPANCY =           0.00






          TIME SUMMARY AT END OF TIME STEP  11 IN STRESS PERIOD    2
                    SECONDS     MINUTES      HOURS       DAYS        YEARS
                    -----------------------------------------------------------
   TIME STEP LENGTH  86400.      1440.0      24.000      1.0000     2.73785E-03
 STRESS PERIOD TIME 9.50400E+05  15840.      264.00      11.000     3.01164E-02
         TOTAL TIME 1.03680E+06  17280.      288.00      12.000     3.28542E-02
1
 
 SOLVING FOR HEAD 

 OUTPUT CONTROL FOR STRESS PERIOD    2   TIME STEP  12
    SAVE HEAD FOR ALL LAYERS
    SAVE DRAWDOWN FOR ALL LAYERS
    SAVE BUDGET
    PRINT HEAD FOR ALL LAYERS
    PRINT BUDGET
 UBDSV1 SAVING "         STORAGE" ON UNIT  53 AT TIME STEP 12, STRESS PERIOD   2
 UBDSV2 SAVING "   CONSTANT HEAD" ON UNIT  53 AT TIME STEP 12, STRESS PERIOD   2
 UBDSV1 SAVING "FLOW RIGHT FACE " ON UNIT  53 AT TIME STEP 12, STRESS PERIOD   2
 UBDSV1 SAVING "FLOW FRONT FACE " ON UNIT  53 AT TIME STEP 12, STRESS PERIOD   2
1
              HEAD IN LAYER   1 AT END OF TIME STEP  12 IN STRESS PERIOD    2
  ---------------------------------------------------------------------------

            1           2           3           4           5           6           7           8           9          10
 ........................................................................................................................
   1    9.990       8.965       7.921       6.859       5.776       4.672       3.545       2.394       1.217      1.2194E-02
   2    9.990       8.965       7.921       6.859       5.776       4.672       3.545       2.394       1.217      1.2194E-02
   3    9.990       8.965       7.921       6.859       5.776       4.672       3.545       2.394       1.217      1.2194E-02
   4    9.990       8.965       7.921       6.859       5.776       4.672       3.545       2.394       1.217      1.2194E-02
   5    9.990       8.965       7.921       6.859       5.776       4.672       3.545       2.394       1.217      1.2194E-02
   6    9.990       8.965       7.921       6.859       5.776       4.672       3.545       2.394       1.217      1.2194E-02
   7    9.990       8.965       7.921       6.859       5.776       4.672       3.545       2.394       1.217      1.2194E-02
   8    9.990       8.965       7.921       6.859       5.776       4.672       3.545       2.394       1.217      1.2194E-02
   9    9.990       8.965       7.921       6.859       5.776       4.672       3.545       2.394       1.217      1.2194E-02
  10    9.990       8.965       7.921       6.859       5.776       4.672       3.545       2.394       1.217      1.2194E-02

 HEAD WILL BE SAVED ON UNIT   51 AT END OF TIME STEP  12, STRESS PERIOD    2

 DRAWDOWN WILL BE SAVED ON UNIT   52 AT END OF TIME STEP  12, STRESS PERIOD    2
1
  VOLUMETRIC BUDGET FOR ENTIRE MODEL AT END OF TIME STEP 12 IN STRESS PERIOD   2
  ------------------------------------------------------------------------------

     CUMULATIVE VOLUMES      L**3       RATES FOR THIS TIME STEP      L**3/T
     ------------------                 ------------------------

           IN:                                      IN:
           ---                                      ---
             STORAGE =       9.7656E-03               STORAGE =           0.0000
       CONSTANT HEAD =           0.0000         CONSTANT HEAD =           0.0000
               WELLS =           0.0000                 WELLS =           0.0000
     HEAD DEP BOUNDS =        7926.2700       HEAD DEP BOUNDS =         609.7147

            TOTAL IN =        7926.2798              TOTAL IN =         609.7147

          OUT:                                     OUT:
          ----                                     ----
             STORAGE =       6.3797E-02               STORAGE =       5.3978E-03
       CONSTANT HEAD =           0.0000         CONSTANT HEAD =           0.0000
               WELLS =           0.0000                 WELLS =           0.0000
     HEAD DEP BOUNDS =        7925.9604       HEAD DEP BOUNDS =         609.6888

           TOTAL OUT =        7926.0244             TOTAL OUT =         609.6942

            IN - OUT =           0.2554              IN - OUT =       2.0447E-02

 PERCENT DISCREPANCY =           0.00     PERCENT DISCREPANCY =           0.00






          TIME SUMMARY AT END OF TIME STEP  12 IN STRESS PERIOD    2
                    SECONDS     MINUTES      HOURS       DAYS        YEARS
                    -----------------------------------------------------------
   TIME STEP LENGTH  86400.      1440.0      24.000      1.0000     2.73785E-03
 STRESS PERIOD TIME 1.03680E+06  17280.      288.00      12.000     3.28542E-02
         TOTAL TIME 1.12320E+06  18720.      312.00      13.000     3.55921E-02
1
 
 SOLVING FOR HEAD 

 OUTPUT CONTROL FOR STRESS PERIOD    2   TIME STEP  13
    SAVE HEAD FOR ALL LAYERS
    SAVE DRAWDOWN FOR ALL LAYERS
    SAVE BUDGET
    PRINT HEAD FOR ALL LAYERS
    PRINT BUDGET
 UBDSV1 SAVING "         STORAGE" ON UNIT  53 AT TIME STEP 13, STRESS PERIOD   2
 UBDSV2 SAVING "   CONSTANT HEAD" ON UNIT  53 AT TIME STEP 13, STRESS PERIOD   2
 UBDSV1 SAVING "FLOW RIGHT FACE " ON UNIT  53 AT TIME STEP 13, STRESS PERIOD   2
 UBDSV1 SAVING "FLOW FRONT FACE " ON UNIT  53 AT TIME STEP 13, STRESS PERIOD   2
1
              HEAD IN LAYER   1 AT END OF TIME STEP  13 IN STRESS PERIOD    2
  ---------------------------------------------------------------------------

            1           2           3           4           5           6           7           8           9          10
 ........................................................................................................................
   1    9.990       8.965       7.921       6.859       5.776       4.672       3.545       2.394       1.217      1.2194E-02
   2    9.990       8.965       7.921       6.859       5.776       4.672       3.545       2.394       1.217      1.2194E-02
   3    9.990       8.965       7.921       6.859       5.776       4.672       3.545       2.394       1.217      1.2194E-02
   4    9.990       8.965       7.921       6.859       5.776       4.672       3.545       2.394       1.217      1.2194E-02
   5    9.990       8.965       7.921       6.859       5.776       4.672       3.545       2.394       1.217      1.2194E-02
   6    9.990       8.965       7.921       6.859       5.776       4.672       3.545       2.394       1.217      1.2194E-02
   7    9.990       8.965       7.921       6.859       5.776       4.672       3.545       2.394       1.217      1.2194E-02
   8    9.990       8.965       7.921       6.859       5.776       4.672       3.545       2.394       1.217      1.2194E-02
   9    9.990       8.965       7.921       6.859       5.776       4.672       3.545       2.394       1.217      1.2194E-02
  10    9.990       8.965       7.921       6.859       5.776       4.672       3.545       2.394       1.217      1.2194E-02

 HEAD WILL BE SAVED ON UNIT   51 AT END OF TIME STEP  13, STRESS PERIOD    2

 DRAWDOWN WILL BE SAVED ON UNIT   52 AT END OF TIME STEP  13, STRESS PERIOD    2
1
  VOLUMETRIC BUDGET FOR ENTIRE MODEL AT END OF TIME STEP 13 IN STRESS PERIOD   2
  ------------------------------------------------------------------------------

     CUMULATIVE VOLUMES      L**3       RATES FOR THIS TIME STEP      L**3/T
     ------------------                 ------------------------

           IN:                                      IN:
           ---                                      ---
             STORAGE =       9.7656E-03               STORAGE =           0.0000
       CONSTANT HEAD =           0.0000         CONSTANT HEAD =           0.0000
               WELLS =           0.0000                 WELLS =           0.0000
     HEAD DEP BOUNDS =        8535.9844       HEAD DEP BOUNDS =         609.7147

            TOTAL IN =        8535.9941              TOTAL IN =         609.7147

          OUT:                                     OUT:
          ----                                     ----
             STORAGE =       6.9195E-02               STORAGE =       5.3978E-03
       CONSTANT HEAD =           0.0000         CONSTANT HEAD =           0.0000
               WELLS =           0.0000                 WELLS =           0.0000
     HEAD DEP BOUNDS =        8535.6494       HEAD DEP BOUNDS =         609.6888

           TOTAL OUT =        8535.7188             TOTAL OUT =         609.6942

            IN - OUT =           0.2754              IN - OUT =       2.0447E-02

 PERCENT DISCREPANCY =           0.00     PERCENT DISCREPANCY =           0.00






          TIME SUMMARY AT END OF TIME STEP  13 IN STRESS PERIOD    2
                    SECONDS     MINUTES      HOURS       DAYS        YEARS
                    -----------------------------------------------------------
   TIME STEP LENGTH  86400.      1440.0      24.000      1.0000     2.73785E-03
 STRESS PERIOD TIME 1.12320E+06  18720.      312.00      13.000     3.55921E-02
         TOTAL TIME 1.20960E+06  20160.      336.00      14.000     3.83299E-02
1
 
 SOLVING FOR HEAD 

 OUTPUT CONTROL FOR STRESS PERIOD    2   TIME STEP  14
    SAVE HEAD FOR ALL LAYERS
    SAVE DRAWDOWN FOR ALL LAYERS
    SAVE BUDGET
    PRINT HEAD FOR ALL LAYERS
    PRINT BUDGET
 UBDSV1 SAVING "         STORAGE" ON UNIT  53 AT TIME STEP 14, STRESS PERIOD   2
 UBDSV2 SAVING "   CONSTANT HEAD" ON UNIT  53 AT TIME STEP 14, STRESS PERIOD   2
 UBDSV1 SAVING "FLOW RIGHT FACE " ON UNIT  53 AT TIME STEP 14, STRESS PERIOD   2
 UBDSV1 SAVING "FLOW FRONT FACE " ON UNIT  53 AT TIME STEP 14, STRESS PERIOD   2
1
              HEAD IN LAYER   1 AT END OF TIME STEP  14 IN STRESS PERIOD    2
  ---------------------------------------------------------------------------

            1           2           3           4           5           6           7           8           9          10
 ........................................................................................................................
   1    9.990       8.965       7.921       6.859       5.776       4.672       3.545       2.394       1.217      1.2194E-02
   2    9.990       8.965       7.921       6.859       5.776       4.672       3.545       2.394       1.217      1.2194E-02
   3    9.990       8.965       7.921       6.859       5.776       4.672       3.545       2.394       1.217      1.2194E-02
   4    9.990       8.965       7.921       6.859       5.776       4.672       3.545       2.394       1.217      1.2194E-02
   5    9.990       8.965       7.921       6.859       5.776       4.672       3.545       2.394       1.217      1.2194E-02
   6    9.990       8.965       7.921       6.859       5.776       4.672       3.545       2.394       1.217      1.2194E-02
   7    9.990       8.965       7.921       6.859       5.776       4.672       3.545       2.394       1.217      1.2194E-02
   8    9.990       8.965       7.921       6.859       5.776       4.672       3.545       2.394       1.217      1.2194E-02
   9    9.990       8.965       7.921       6.859       5.776       4.672       3.545       2.394       1.217      1.2194E-02
  10    9.990       8.965       7.921       6.859       5.776       4.672       3.545       2.394       1.217      1.2194E-02

 HEAD WILL BE SAVED ON UNIT   51 AT END OF TIME STEP  14, STRESS PERIOD    2

 DRAWDOWN WILL BE SAVED ON UNIT   52 AT END OF TIME STEP  14, STRESS PERIOD    2
1
  VOLUMETRIC BUDGET FOR ENTIRE MODEL AT END OF TIME STEP 14 IN STRESS PERIOD   2
  ------------------------------------------------------------------------------

     CUMULATIVE VOLUMES      L**3       RATES FOR THIS TIME STEP      L**3/T
     ------------------                 ------------------------

           IN:                                      IN:
           ---                                      ---
             STORAGE =       9.7656E-03               STORAGE =           0.0000
       CONSTANT HEAD =           0.0000         CONSTANT HEAD =           0.0000
               WELLS =           0.0000                 WELLS =           0.0000
     HEAD DEP BOUNDS =        9145.6992       HEAD DEP BOUNDS =         609.7147

            TOTAL IN =        9145.7090              TOTAL IN =         609.7147

          OUT:                                     OUT:
          ----                                     ----
             STORAGE =       7.4593E-02               STORAGE =       5.3978E-03
       CONSTANT HEAD =           0.0000         CONSTANT HEAD =           0.0000
               WELLS =           0.0000                 WELLS =           0.0000
     HEAD DEP BOUNDS =        9145.3379       HEAD DEP BOUNDS =         609.6888

           TOTAL OUT =        9145.4121             TOTAL OUT =         609.6942

            IN - OUT =           0.2969              IN - OUT =       2.0447E-02

 PERCENT DISCREPANCY =           0.00     PERCENT DISCREPANCY =           0.00






          TIME SUMMARY AT END OF TIME STEP  14 IN STRESS PERIOD    2
                    SECONDS     MINUTES      HOURS       DAYS        YEARS
                    -----------------------------------------------------------
   TIME STEP LENGTH  86400.      1440.0      24.000      1.0000     2.73785E-03
 STRESS PERIOD TIME 1.20960E+06  20160.      336.00      14.000     3.83299E-02
         TOTAL TIME 1.29600E+06  21600.      360.00      15.000     4.10678E-02
1
 
 SOLVING FOR HEAD 

 OUTPUT CONTROL FOR STRESS PERIOD    2   TIME STEP  15
    SAVE HEAD FOR ALL LAYERS
    SAVE DRAWDOWN FOR ALL LAYERS
    SAVE BUDGET
    PRINT HEAD FOR ALL LAYERS
    PRINT BUDGET
 UBDSV1 SAVING "         STORAGE" ON UNIT  53 AT TIME STEP 15, STRESS PERIOD   2
 UBDSV2 SAVING "   CONSTANT HEAD" ON UNIT  53 AT TIME STEP 15, STRESS PERIOD   2
 UBDSV1 SAVING "FLOW RIGHT FACE " ON UNIT  53 AT TIME STEP 15, STRESS PERIOD   2
 UBDSV1 SAVING "FLOW FRONT FACE " ON UNIT  53 AT TIME STEP 15, STRESS PERIOD   2
1
              HEAD IN LAYER   1 AT END OF TIME STEP  15 IN STRESS PERIOD    2
  ---------------------------------------------------------------------------

            1           2           3           4           5           6           7           8           9          10
 ........................................................................................................................
   1    9.990       8.965       7.921       6.859       5.776       4.672       3.545       2.394       1.217      1.2194E-02
   2    9.990       8.965       7.921       6.859       5.776       4.672       3.545       2.394       1.217      1.2194E-02
   3    9.990       8.965       7.921       6.859       5.776       4.672       3.545       2.394       1.217      1.2194E-02
   4    9.990       8.965       7.921       6.859       5.776       4.672       3.545       2.394       1.217      1.2194E-02
   5    9.990       8.965       7.921       6.859       5.776       4.672       3.545       2.394       1.217      1.2194E-02
   6    9.990       8.965       7.921       6.859       5.776       4.672       3.545       2.394       1.217      1.2194E-02
   7    9.990       8.965       7.921       6.859       5.776       4.672       3.545       2.394       1.217      1.2194E-02
   8    9.990       8.965       7.921       6.859       5.776       4.672       3.545       2.394       1.217      1.2194E-02
   9    9.990       8.965       7.921       6.859       5.776       4.672       3.545       2.394       1.217      1.2194E-02
  10    9.990       8.965       7.921       6.859       5.776       4.672       3.545       2.394       1.217      1.2194E-02

 HEAD WILL BE SAVED ON UNIT   51 AT END OF TIME STEP  15, STRESS PERIOD    2

 DRAWDOWN WILL BE SAVED ON UNIT   52 AT END OF TIME STEP  15, STRESS PERIOD    2
1
  VOLUMETRIC BUDGET FOR ENTIRE MODEL AT END OF TIME STEP 15 IN STRESS PERIOD   2
  ------------------------------------------------------------------------------

     CUMULATIVE VOLUMES      L**3       RATES FOR THIS TIME STEP      L**3/T
     ------------------                 ------------------------

           IN:                                      IN:
           ---                                      ---
             STORAGE =       9.7656E-03               STORAGE =           0.0000
       CONSTANT HEAD =           0.0000         CONSTANT HEAD =           0.0000
               WELLS =           0.0000                 WELLS =           0.0000
     HEAD DEP BOUNDS =        9755.4141       HEAD DEP BOUNDS =         609.7147

            TOTAL IN =        9755.4238              TOTAL IN =         609.7147

          OUT:                                     OUT:
          ----                                     ----
             STORAGE =       7.9990E-02               STORAGE =       5.3978E-03
       CONSTANT HEAD =           0.0000         CONSTANT HEAD =           0.0000
               WELLS =           0.0000                 WELLS =           0.0000
     HEAD DEP BOUNDS =        9755.0264       HEAD DEP BOUNDS =         609.6888

           TOTAL OUT =        9755.1064             TOTAL OUT =         609.6942

            IN - OUT =           0.3174              IN - OUT =       2.0447E-02

 PERCENT DISCREPANCY =           0.00     PERCENT DISCREPANCY =           0.00






          TIME SUMMARY AT END OF TIME STEP  15 IN STRESS PERIOD    2
                    SECONDS     MINUTES      HOURS       DAYS        YEARS
                    -----------------------------------------------------------
   TIME STEP LENGTH  86400.      1440.0      24.000      1.0000     2.73785E-03
 STRESS PERIOD TIME 1.29600E+06  21600.      360.00      15.000     4.10678E-02
         TOTAL TIME 1.38240E+06  23040.      384.00      16.000     4.38056E-02
1
 
 SOLVING FOR HEAD 

 OUTPUT CONTROL FOR STRESS PERIOD    2   TIME STEP  16
    SAVE HEAD FOR ALL LAYERS
    SAVE DRAWDOWN FOR ALL LAYERS
    SAVE BUDGET
    PRINT HEAD FOR ALL LAYERS
    PRINT BUDGET
 UBDSV1 SAVING "         STORAGE" ON UNIT  53 AT TIME STEP 16, STRESS PERIOD   2
 UBDSV2 SAVING "   CONSTANT HEAD" ON UNIT  53 AT TIME STEP 16, STRESS PERIOD   2
 UBDSV1 SAVING "FLOW RIGHT FACE " ON UNIT  53 AT TIME STEP 16, STRESS PERIOD   2
 UBDSV1 SAVING "FLOW FRONT FACE " ON UNIT  53 AT TIME STEP 16, STRESS PERIOD   2
1
              HEAD IN LAYER   1 AT END OF TIME STEP  16 IN STRESS PERIOD    2
  ---------------------------------------------------------------------------

            1           2           3           4           5           6           7           8           9          10
 ........................................................................................................................
   1    9.990       8.965       7.921       6.859       5.776       4.672       3.545       2.394       1.217      1.2194E-02
   2    9.990       8.965       7.921       6.859       5.776       4.672       3.545       2.394       1.217      1.2194E-02
   3    9.990       8.965       7.921       6.859       5.776       4.672       3.545       2.394       1.217      1.2194E-02
   4    9.990       8.965       7.921       6.859       5.776       4.672       3.545       2.394       1.217      1.2194E-02
   5    9.990       8.965       7.921       6.859       5.776       4.672       3.545       2.394       1.217      1.2194E-02
   6    9.990       8.965       7.921       6.859       5.776       4.672       3.545       2.394       1.217      1.2194E-02
   7    9.990       8.965       7.921       6.859       5.776       4.672       3.545       2.394       1.217      1.2194E-02
   8    9.990       8.965       7.921       6.859       5.776       4.672       3.545       2.394       1.217      1.2194E-02
   9    9.990       8.965       7.921       6.859       5.776       4.672       3.545       2.394       1.217      1.2194E-02
  10    9.990       8.965       7.921       6.859       5.776       4.672       3.545       2.394       1.217      1.2194E-02

 HEAD WILL BE SAVED ON UNIT   51 AT END OF TIME STEP  16, STRESS PERIOD    2

 DRAWDOWN WILL BE SAVED ON UNIT   52 AT END OF TIME STEP  16, STRESS PERIOD    2
1
  VOLUMETRIC BUDGET FOR ENTIRE MODEL AT END OF TIME STEP 16 IN STRESS PERIOD   2
  ------------------------------------------------------------------------------

     CUMULATIVE VOLUMES      L**3       RATES FOR THIS TIME STEP      L**3/T
     ------------------                 ------------------------

           IN:                                      IN:
           ---                                      ---
             STORAGE =       9.7656E-03               STORAGE =           0.0000
       CONSTANT HEAD =           0.0000         CONSTANT HEAD =           0.0000
               WELLS =           0.0000                 WELLS =           0.0000
     HEAD DEP BOUNDS =       10365.1289       HEAD DEP BOUNDS =         609.7147

            TOTAL IN =       10365.1387              TOTAL IN =         609.7147

          OUT:                                     OUT:
          ----                                     ----
             STORAGE =       8.5388E-02               STORAGE =       5.3978E-03
       CONSTANT HEAD =           0.0000         CONSTANT HEAD =           0.0000
               WELLS =           0.0000                 WELLS =           0.0000
     HEAD DEP BOUNDS =       10364.7148       HEAD DEP BOUNDS =         609.6888

           TOTAL OUT =       10364.7998             TOTAL OUT =         609.6942

            IN - OUT =           0.3389              IN - OUT =       2.0447E-02

 PERCENT DISCREPANCY =           0.00     PERCENT DISCREPANCY =           0.00






          TIME SUMMARY AT END OF TIME STEP  16 IN STRESS PERIOD    2
                    SECONDS     MINUTES      HOURS       DAYS        YEARS
                    -----------------------------------------------------------
   TIME STEP LENGTH  86400.      1440.0      24.000      1.0000     2.73785E-03
 STRESS PERIOD TIME 1.38240E+06  23040.      384.00      16.000     4.38056E-02
         TOTAL TIME 1.46880E+06  24480.      408.00      17.000     4.65435E-02
1
 
 SOLVING FOR HEAD 

 OUTPUT CONTROL FOR STRESS PERIOD    2   TIME STEP  17
    SAVE HEAD FOR ALL LAYERS
    SAVE DRAWDOWN FOR ALL LAYERS
    SAVE BUDGET
    PRINT HEAD FOR ALL LAYERS
    PRINT BUDGET
 UBDSV1 SAVING "         STORAGE" ON UNIT  53 AT TIME STEP 17, STRESS PERIOD   2
 UBDSV2 SAVING "   CONSTANT HEAD" ON UNIT  53 AT TIME STEP 17, STRESS PERIOD   2
 UBDSV1 SAVING "FLOW RIGHT FACE " ON UNIT  53 AT TIME STEP 17, STRESS PERIOD   2
 UBDSV1 SAVING "FLOW FRONT FACE " ON UNIT  53 AT TIME STEP 17, STRESS PERIOD   2
1
              HEAD IN LAYER   1 AT END OF TIME STEP  17 IN STRESS PERIOD    2
  ---------------------------------------------------------------------------

            1           2           3           4           5           6           7           8           9          10
 ........................................................................................................................
   1    9.990       8.965       7.921       6.859       5.776       4.672       3.545       2.394       1.217      1.2194E-02
   2    9.990       8.965       7.921       6.859       5.776       4.672       3.545       2.394       1.217      1.2194E-02
   3    9.990       8.965       7.921       6.859       5.776       4.672       3.545       2.394       1.217      1.2194E-02
   4    9.990       8.965       7.921       6.859       5.776       4.672       3.545       2.394       1.217      1.2194E-02
   5    9.990       8.965       7.921       6.859       5.776       4.672       3.545       2.394       1.217      1.2194E-02
   6    9.990       8.965       7.921       6.859       5.776       4.672       3.545       2.394       1.217      1.2194E-02
   7    9.990       8.965       7.921       6.859       5.776       4.672       3.545       2.394       1.217      1.2194E-02
   8    9.990       8.965       7.921       6.859       5.776       4.672       3.545       2.394       1.217      1.2194E-02
   9    9.990       8.965       7.921       6.859       5.776       4.672       3.545       2.394       1.217      1.2194E-02
  10    9.990       8.965       7.921       6.859       5.776       4.672       3.545       2.394       1.217      1.2194E-02

 HEAD WILL BE SAVED ON UNIT   51 AT END OF TIME STEP  17, STRESS PERIOD    2

 DRAWDOWN WILL BE SAVED ON UNIT   52 AT END OF TIME STEP  17, STRESS PERIOD    2
1
  VOLUMETRIC BUDGET FOR ENTIRE MODEL AT END OF TIME STEP 17 IN STRESS PERIOD   2
  ------------------------------------------------------------------------------

     CUMULATIVE VOLUMES      L**3       RATES FOR THIS TIME STEP      L**3/T
     ------------------                 ------------------------

           IN:                                      IN:
           ---                                      ---
             STORAGE =       9.7656E-03               STORAGE =           0.0000
       CONSTANT HEAD =           0.0000         CONSTANT HEAD =           0.0000
               WELLS =           0.0000                 WELLS =           0.0000
     HEAD DEP BOUNDS =       10974.8438       HEAD DEP BOUNDS =         609.7147

            TOTAL IN =       10974.8535              TOTAL IN =         609.7147

          OUT:                                     OUT:
          ----                                     ----
             STORAGE =       9.0786E-02               STORAGE =       5.3978E-03
       CONSTANT HEAD =           0.0000         CONSTANT HEAD =           0.0000
               WELLS =           0.0000                 WELLS =           0.0000
     HEAD DEP BOUNDS =       10974.4033       HEAD DEP BOUNDS =         609.6888

           TOTAL OUT =       10974.4941             TOTAL OUT =         609.6942

            IN - OUT =           0.3594              IN - OUT =       2.0447E-02

 PERCENT DISCREPANCY =           0.00     PERCENT DISCREPANCY =           0.00






          TIME SUMMARY AT END OF TIME STEP  17 IN STRESS PERIOD    2
                    SECONDS     MINUTES      HOURS       DAYS        YEARS
                    -----------------------------------------------------------
   TIME STEP LENGTH  86400.      1440.0      24.000      1.0000     2.73785E-03
 STRESS PERIOD TIME 1.46880E+06  24480.      408.00      17.000     4.65435E-02
         TOTAL TIME 1.55520E+06  25920.      432.00      18.000     4.92813E-02
1
 
 SOLVING FOR HEAD 

 OUTPUT CONTROL FOR STRESS PERIOD    2   TIME STEP  18
    SAVE HEAD FOR ALL LAYERS
    SAVE DRAWDOWN FOR ALL LAYERS
    SAVE BUDGET
    PRINT HEAD FOR ALL LAYERS
    PRINT BUDGET
 UBDSV1 SAVING "         STORAGE" ON UNIT  53 AT TIME STEP 18, STRESS PERIOD   2
 UBDSV2 SAVING "   CONSTANT HEAD" ON UNIT  53 AT TIME STEP 18, STRESS PERIOD   2
 UBDSV1 SAVING "FLOW RIGHT FACE " ON UNIT  53 AT TIME STEP 18, STRESS PERIOD   2
 UBDSV1 SAVING "FLOW FRONT FACE " ON UNIT  53 AT TIME STEP 18, STRESS PERIOD   2
1
              HEAD IN LAYER   1 AT END OF TIME STEP  18 IN STRESS PERIOD    2
  ---------------------------------------------------------------------------

            1           2           3           4           5           6           7           8           9          10
 ........................................................................................................................
   1    9.990       8.965       7.921       6.859       5.776       4.672       3.545       2.394       1.217      1.2194E-02
   2    9.990       8.965       7.921       6.859       5.776       4.672       3.545       2.394       1.217      1.2194E-02
   3    9.990       8.965       7.921       6.859       5.776       4.672       3.545       2.394       1.217      1.2194E-02
   4    9.990       8.965       7.921       6.859       5.776       4.672       3.545       2.394       1.217      1.2194E-02
   5    9.990       8.965       7.921       6.859       5.776       4.672       3.545       2.394       1.217      1.2194E-02
   6    9.990       8.965       7.921       6.859       5.776       4.672       3.545       2.394       1.217      1.2194E-02
   7    9.990       8.965       7.921       6.859       5.776       4.672       3.545       2.394       1.217      1.2194E-02
   8    9.990       8.965       7.921       6.859       5.776       4.672       3.545       2.394       1.217      1.2194E-02
   9    9.990       8.965       7.921       6.859       5.776       4.672       3.545       2.394       1.217      1.2194E-02
  10    9.990       8.965       7.921       6.859       5.776       4.672       3.545       2.394       1.217      1.2194E-02

 HEAD WILL BE SAVED ON UNIT   51 AT END OF TIME STEP  18, STRESS PERIOD    2

 DRAWDOWN WILL BE SAVED ON UNIT   52 AT END OF TIME STEP  18, STRESS PERIOD    2
1
  VOLUMETRIC BUDGET FOR ENTIRE MODEL AT END OF TIME STEP 18 IN STRESS PERIOD   2
  ------------------------------------------------------------------------------

     CUMULATIVE VOLUMES      L**3       RATES FOR THIS TIME STEP      L**3/T
     ------------------                 ------------------------

           IN:                                      IN:
           ---                                      ---
             STORAGE =       9.7656E-03               STORAGE =           0.0000
       CONSTANT HEAD =           0.0000         CONSTANT HEAD =           0.0000
               WELLS =           0.0000                 WELLS =           0.0000
     HEAD DEP BOUNDS =       11584.5586       HEAD DEP BOUNDS =         609.7147

            TOTAL IN =       11584.5684              TOTAL IN =         609.7147

          OUT:                                     OUT:
          ----                                     ----
             STORAGE =       9.6184E-02               STORAGE =       5.3978E-03
       CONSTANT HEAD =           0.0000         CONSTANT HEAD =           0.0000
               WELLS =           0.0000                 WELLS =           0.0000
     HEAD DEP BOUNDS =       11584.0918       HEAD DEP BOUNDS =         609.6888

           TOTAL OUT =       11584.1875             TOTAL OUT =         609.6942

            IN - OUT =           0.3809              IN - OUT =       2.0447E-02

 PERCENT DISCREPANCY =           0.00     PERCENT DISCREPANCY =           0.00






          TIME SUMMARY AT END OF TIME STEP  18 IN STRESS PERIOD    2
                    SECONDS     MINUTES      HOURS       DAYS        YEARS
                    -----------------------------------------------------------
   TIME STEP LENGTH  86400.      1440.0      24.000      1.0000     2.73785E-03
 STRESS PERIOD TIME 1.55520E+06  25920.      432.00      18.000     4.92813E-02
         TOTAL TIME 1.64160E+06  27360.      456.00      19.000     5.20192E-02
1
 
 SOLVING FOR HEAD 

 OUTPUT CONTROL FOR STRESS PERIOD    2   TIME STEP  19
    SAVE HEAD FOR ALL LAYERS
    SAVE DRAWDOWN FOR ALL LAYERS
    SAVE BUDGET
    PRINT HEAD FOR ALL LAYERS
    PRINT BUDGET
 UBDSV1 SAVING "         STORAGE" ON UNIT  53 AT TIME STEP 19, STRESS PERIOD   2
 UBDSV2 SAVING "   CONSTANT HEAD" ON UNIT  53 AT TIME STEP 19, STRESS PERIOD   2
 UBDSV1 SAVING "FLOW RIGHT FACE " ON UNIT  53 AT TIME STEP 19, STRESS PERIOD   2
 UBDSV1 SAVING "FLOW FRONT FACE " ON UNIT  53 AT TIME STEP 19, STRESS PERIOD   2
1
              HEAD IN LAYER   1 AT END OF TIME STEP  19 IN STRESS PERIOD    2
  ---------------------------------------------------------------------------

            1           2           3           4           5           6           7           8           9          10
 ........................................................................................................................
   1    9.990       8.965       7.921       6.859       5.776       4.672       3.545       2.394       1.217      1.2194E-02
   2    9.990       8.965       7.921       6.859       5.776       4.672       3.545       2.394       1.217      1.2194E-02
   3    9.990       8.965       7.921       6.859       5.776       4.672       3.545       2.394       1.217      1.2194E-02
   4    9.990       8.965       7.921       6.859       5.776       4.672       3.545       2.394       1.217      1.2194E-02
   5    9.990       8.965       7.921       6.859       5.776       4.672       3.545       2.394       1.217      1.2194E-02
   6    9.990       8.965       7.921       6.859       5.776       4.672       3.545       2.394       1.217      1.2194E-02
   7    9.990       8.965       7.921       6.859       5.776       4.672       3.545       2.394       1.217      1.2194E-02
   8    9.990       8.965       7.921       6.859       5.776       4.672       3.545       2.394       1.217      1.2194E-02
   9    9.990       8.965       7.921       6.859       5.776       4.672       3.545       2.394       1.217      1.2194E-02
  10    9.990       8.965       7.921       6.859       5.776       4.672       3.545       2.394       1.217      1.2194E-02

 HEAD WILL BE SAVED ON UNIT   51 AT END OF TIME STEP  19, STRESS PERIOD    2

 DRAWDOWN WILL BE SAVED ON UNIT   52 AT END OF TIME STEP  19, STRESS PERIOD    2
1
  VOLUMETRIC BUDGET FOR ENTIRE MODEL AT END OF TIME STEP 19 IN STRESS PERIOD   2
  ------------------------------------------------------------------------------

     CUMULATIVE VOLUMES      L**3       RATES FOR THIS TIME STEP      L**3/T
     ------------------                 ------------------------

           IN:                                      IN:
           ---                                      ---
             STORAGE =       9.7656E-03               STORAGE =           0.0000
       CONSTANT HEAD =           0.0000         CONSTANT HEAD =           0.0000
               WELLS =           0.0000                 WELLS =           0.0000
     HEAD DEP BOUNDS =       12194.2734       HEAD DEP BOUNDS =         609.7147

            TOTAL IN =       12194.2832              TOTAL IN =         609.7147

          OUT:                                     OUT:
          ----                                     ----
             STORAGE =           0.1016               STORAGE =       5.3978E-03
       CONSTANT HEAD =           0.0000         CONSTANT HEAD =           0.0000
               WELLS =           0.0000                 WELLS =           0.0000
     HEAD DEP BOUNDS =       12193.7803       HEAD DEP BOUNDS =         609.6888

           TOTAL OUT =       12193.8818             TOTAL OUT =         609.6942

            IN - OUT =           0.4014              IN - OUT =       2.0447E-02

 PERCENT DISCREPANCY =           0.00     PERCENT DISCREPANCY =           0.00






          TIME SUMMARY AT END OF TIME STEP  19 IN STRESS PERIOD    2
                    SECONDS     MINUTES      HOURS       DAYS        YEARS
                    -----------------------------------------------------------
   TIME STEP LENGTH  86400.      1440.0      24.000      1.0000     2.73785E-03
 STRESS PERIOD TIME 1.64160E+06  27360.      456.00      19.000     5.20192E-02
         TOTAL TIME 1.72800E+06  28800.      480.00      20.000     5.47570E-02
1
 
 SOLVING FOR HEAD 

 OUTPUT CONTROL FOR STRESS PERIOD    2   TIME STEP  20
    SAVE HEAD FOR ALL LAYERS
    SAVE DRAWDOWN FOR ALL LAYERS
    SAVE BUDGET
    PRINT HEAD FOR ALL LAYERS
    PRINT BUDGET
 UBDSV1 SAVING "         STORAGE" ON UNIT  53 AT TIME STEP 20, STRESS PERIOD   2
 UBDSV2 SAVING "   CONSTANT HEAD" ON UNIT  53 AT TIME STEP 20, STRESS PERIOD   2
 UBDSV1 SAVING "FLOW RIGHT FACE " ON UNIT  53 AT TIME STEP 20, STRESS PERIOD   2
 UBDSV1 SAVING "FLOW FRONT FACE " ON UNIT  53 AT TIME STEP 20, STRESS PERIOD   2
1
              HEAD IN LAYER   1 AT END OF TIME STEP  20 IN STRESS PERIOD    2
  ---------------------------------------------------------------------------

            1           2           3           4           5           6           7           8           9          10
 ........................................................................................................................
   1    9.990       8.965       7.921       6.859       5.776       4.672       3.545       2.394       1.217      1.2194E-02
   2    9.990       8.965       7.921       6.859       5.776       4.672       3.545       2.394       1.217      1.2194E-02
   3    9.990       8.965       7.921       6.859       5.776       4.672       3.545       2.394       1.217      1.2194E-02
   4    9.990       8.965       7.921       6.859       5.776       4.672       3.545       2.394       1.217      1.2194E-02
   5    9.990       8.965       7.921       6.859       5.776       4.672       3.545       2.394       1.217      1.2194E-02
   6    9.990       8.965       7.921       6.859       5.776       4.672       3.545       2.394       1.217      1.2194E-02
   7    9.990       8.965       7.921       6.859       5.776       4.672       3.545       2.394       1.217      1.2194E-02
   8    9.990       8.965       7.921       6.859       5.776       4.672       3.545       2.394       1.217      1.2194E-02
   9    9.990       8.965       7.921       6.859       5.776       4.672       3.545       2.394       1.217      1.2194E-02
  10    9.990       8.965       7.921       6.859       5.776       4.672       3.545       2.394       1.217      1.2194E-02

 HEAD WILL BE SAVED ON UNIT   51 AT END OF TIME STEP  20, STRESS PERIOD    2

 DRAWDOWN WILL BE SAVED ON UNIT   52 AT END OF TIME STEP  20, STRESS PERIOD    2
1
  VOLUMETRIC BUDGET FOR ENTIRE MODEL AT END OF TIME STEP 20 IN STRESS PERIOD   2
  ------------------------------------------------------------------------------

     CUMULATIVE VOLUMES      L**3       RATES FOR THIS TIME STEP      L**3/T
     ------------------                 ------------------------

           IN:                                      IN:
           ---                                      ---
             STORAGE =       9.7656E-03               STORAGE =           0.0000
       CONSTANT HEAD =           0.0000         CONSTANT HEAD =           0.0000
               WELLS =           0.0000                 WELLS =           0.0000
     HEAD DEP BOUNDS =       12803.9883       HEAD DEP BOUNDS =         609.7147

            TOTAL IN =       12803.9980              TOTAL IN =         609.7147

          OUT:                                     OUT:
          ----                                     ----
             STORAGE =           0.1070               STORAGE =       5.3978E-03
       CONSTANT HEAD =           0.0000         CONSTANT HEAD =           0.0000
               WELLS =           0.0000                 WELLS =           0.0000
     HEAD DEP BOUNDS =       12803.4688       HEAD DEP BOUNDS =         609.6888

           TOTAL OUT =       12803.5762             TOTAL OUT =         609.6942

            IN - OUT =           0.4219              IN - OUT =       2.0447E-02

 PERCENT DISCREPANCY =           0.00     PERCENT DISCREPANCY =           0.00






          TIME SUMMARY AT END OF TIME STEP  20 IN STRESS PERIOD    2
                    SECONDS     MINUTES      HOURS       DAYS        YEARS
                    -----------------------------------------------------------
   TIME STEP LENGTH  86400.      1440.0      24.000      1.0000     2.73785E-03
 STRESS PERIOD TIME 1.72800E+06  28800.      480.00      20.000     5.47570E-02
         TOTAL TIME 1.81440E+06  30240.      504.00      21.000     5.74949E-02
1
 
 SOLVING FOR HEAD 

 OUTPUT CONTROL FOR STRESS PERIOD    2   TIME STEP  21
    SAVE HEAD FOR ALL LAYERS
    SAVE DRAWDOWN FOR ALL LAYERS
    SAVE BUDGET
    PRINT HEAD FOR ALL LAYERS
    PRINT BUDGET
 UBDSV1 SAVING "         STORAGE" ON UNIT  53 AT TIME STEP 21, STRESS PERIOD   2
 UBDSV2 SAVING "   CONSTANT HEAD" ON UNIT  53 AT TIME STEP 21, STRESS PERIOD   2
 UBDSV1 SAVING "FLOW RIGHT FACE " ON UNIT  53 AT TIME STEP 21, STRESS PERIOD   2
 UBDSV1 SAVING "FLOW FRONT FACE " ON UNIT  53 AT TIME STEP 21, STRESS PERIOD   2
1
              HEAD IN LAYER   1 AT END OF TIME STEP  21 IN STRESS PERIOD    2
  ---------------------------------------------------------------------------

            1           2           3           4           5           6           7           8           9          10
 ........................................................................................................................
   1    9.990       8.965       7.921       6.859       5.776       4.672       3.545       2.394       1.217      1.2194E-02
   2    9.990       8.965       7.921       6.859       5.776       4.672       3.545       2.394       1.217      1.2194E-02
   3    9.990       8.965       7.921       6.859       5.776       4.672       3.545       2.394       1.217      1.2194E-02
   4    9.990       8.965       7.921       6.859       5.776       4.672       3.545       2.394       1.217      1.2194E-02
   5    9.990       8.965       7.921       6.859       5.776       4.672       3.545       2.394       1.217      1.2194E-02
   6    9.990       8.965       7.921       6.859       5.776       4.672       3.545       2.394       1.217      1.2194E-02
   7    9.990       8.965       7.921       6.859       5.776       4.672       3.545       2.394       1.217      1.2194E-02
   8    9.990       8.965       7.921       6.859       5.776       4.672       3.545       2.394       1.217      1.2194E-02
   9    9.990       8.965       7.921       6.859       5.776       4.672       3.545       2.394       1.217      1.2194E-02
  10    9.990       8.965       7.921       6.859       5.776       4.672       3.545       2.394       1.217      1.2194E-02

 HEAD WILL BE SAVED ON UNIT   51 AT END OF TIME STEP  21, STRESS PERIOD    2

 DRAWDOWN WILL BE SAVED ON UNIT   52 AT END OF TIME STEP  21, STRESS PERIOD    2
1
  VOLUMETRIC BUDGET FOR ENTIRE MODEL AT END OF TIME STEP 21 IN STRESS PERIOD   2
  ------------------------------------------------------------------------------

     CUMULATIVE VOLUMES      L**3       RATES FOR THIS TIME STEP      L**3/T
     ------------------                 ------------------------

           IN:                                      IN:
           ---                                      ---
             STORAGE =       9.7656E-03               STORAGE =           0.0000
       CONSTANT HEAD =           0.0000         CONSTANT HEAD =           0.0000
               WELLS =           0.0000                 WELLS =           0.0000
     HEAD DEP BOUNDS =       13413.7031       HEAD DEP BOUNDS =         609.7147

            TOTAL IN =       13413.7129              TOTAL IN =         609.7147

          OUT:                                     OUT:
          ----                                     ----
             STORAGE =           0.1124               STORAGE =       5.3978E-03
       CONSTANT HEAD =           0.0000         CONSTANT HEAD =           0.0000
               WELLS =           0.0000                 WELLS =           0.0000
     HEAD DEP BOUNDS =       13413.1572       HEAD DEP BOUNDS =         609.6888

           TOTAL OUT =       13413.2695             TOTAL OUT =         609.6942

            IN - OUT =           0.4434              IN - OUT =       2.0447E-02

 PERCENT DISCREPANCY =           0.00     PERCENT DISCREPANCY =           0.00






          TIME SUMMARY AT END OF TIME STEP  21 IN STRESS PERIOD    2
                    SECONDS     MINUTES      HOURS       DAYS        YEARS
                    -----------------------------------------------------------
   TIME STEP LENGTH  86400.      1440.0      24.000      1.0000     2.73785E-03
 STRESS PERIOD TIME 1.81440E+06  30240.      504.00      21.000     5.74949E-02
         TOTAL TIME 1.90080E+06  31680.      528.00      22.000     6.02327E-02
1
 
 SOLVING FOR HEAD 

 OUTPUT CONTROL FOR STRESS PERIOD    2   TIME STEP  22
    SAVE HEAD FOR ALL LAYERS
    SAVE DRAWDOWN FOR ALL LAYERS
    SAVE BUDGET
    PRINT HEAD FOR ALL LAYERS
    PRINT BUDGET
 UBDSV1 SAVING "         STORAGE" ON UNIT  53 AT TIME STEP 22, STRESS PERIOD   2
 UBDSV2 SAVING "   CONSTANT HEAD" ON UNIT  53 AT TIME STEP 22, STRESS PERIOD   2
 UBDSV1 SAVING "FLOW RIGHT FACE " ON UNIT  53 AT TIME STEP 22, STRESS PERIOD   2
 UBDSV1 SAVING "FLOW FRONT FACE " ON UNIT  53 AT TIME STEP 22, STRESS PERIOD   2
1
              HEAD IN LAYER   1 AT END OF TIME STEP  22 IN STRESS PERIOD    2
  ---------------------------------------------------------------------------

            1           2           3           4           5           6           7           8           9          10
 ........................................................................................................................
   1    9.990       8.965       7.921       6.859       5.776       4.672       3.545       2.394       1.217      1.2194E-02
   2    9.990       8.965       7.921       6.859       5.776       4.672       3.545       2.394       1.217      1.2194E-02
   3    9.990       8.965       7.921       6.859       5.776       4.672       3.545       2.394       1.217      1.2194E-02
   4    9.990       8.965       7.921       6.859       5.776       4.672       3.545       2.394       1.217      1.2194E-02
   5    9.990       8.965       7.921       6.859       5.776       4.672       3.545       2.394       1.217      1.2194E-02
   6    9.990       8.965       7.921       6.859       5.776       4.672       3.545       2.394       1.217      1.2194E-02
   7    9.990       8.965       7.921       6.859       5.776       4.672       3.545       2.394       1.217      1.2194E-02
   8    9.990       8.965       7.921       6.859       5.776       4.672       3.545       2.394       1.217      1.2194E-02
   9    9.990       8.965       7.921       6.859       5.776       4.672       3.545       2.394       1.217      1.2194E-02
  10    9.990       8.965       7.921       6.859       5.776       4.672       3.545       2.394       1.217      1.2194E-02

 HEAD WILL BE SAVED ON UNIT   51 AT END OF TIME STEP  22, STRESS PERIOD    2

 DRAWDOWN WILL BE SAVED ON UNIT   52 AT END OF TIME STEP  22, STRESS PERIOD    2
1
  VOLUMETRIC BUDGET FOR ENTIRE MODEL AT END OF TIME STEP 22 IN STRESS PERIOD   2
  ------------------------------------------------------------------------------

     CUMULATIVE VOLUMES      L**3       RATES FOR THIS TIME STEP      L**3/T
     ------------------                 ------------------------

           IN:                                      IN:
           ---                                      ---
             STORAGE =       9.7656E-03               STORAGE =           0.0000
       CONSTANT HEAD =           0.0000         CONSTANT HEAD =           0.0000
               WELLS =           0.0000                 WELLS =           0.0000
     HEAD DEP BOUNDS =       14023.4180       HEAD DEP BOUNDS =         609.7147

            TOTAL IN =       14023.4277              TOTAL IN =         609.7147

          OUT:                                     OUT:
          ----                                     ----
             STORAGE =           0.1178               STORAGE =       5.3978E-03
       CONSTANT HEAD =           0.0000         CONSTANT HEAD =           0.0000
               WELLS =           0.0000                 WELLS =           0.0000
     HEAD DEP BOUNDS =       14022.8457       HEAD DEP BOUNDS =         609.6888

           TOTAL OUT =       14022.9639             TOTAL OUT =         609.6942

            IN - OUT =           0.4639              IN - OUT =       2.0447E-02

 PERCENT DISCREPANCY =           0.00     PERCENT DISCREPANCY =           0.00






          TIME SUMMARY AT END OF TIME STEP  22 IN STRESS PERIOD    2
                    SECONDS     MINUTES      HOURS       DAYS        YEARS
                    -----------------------------------------------------------
   TIME STEP LENGTH  86400.      1440.0      24.000      1.0000     2.73785E-03
 STRESS PERIOD TIME 1.90080E+06  31680.      528.00      22.000     6.02327E-02
         TOTAL TIME 1.98720E+06  33120.      552.00      23.000     6.29706E-02
1
 
 SOLVING FOR HEAD 

 OUTPUT CONTROL FOR STRESS PERIOD    2   TIME STEP  23
    SAVE HEAD FOR ALL LAYERS
    SAVE DRAWDOWN FOR ALL LAYERS
    SAVE BUDGET
    PRINT HEAD FOR ALL LAYERS
    PRINT BUDGET
 UBDSV1 SAVING "         STORAGE" ON UNIT  53 AT TIME STEP 23, STRESS PERIOD   2
 UBDSV2 SAVING "   CONSTANT HEAD" ON UNIT  53 AT TIME STEP 23, STRESS PERIOD   2
 UBDSV1 SAVING "FLOW RIGHT FACE " ON UNIT  53 AT TIME STEP 23, STRESS PERIOD   2
 UBDSV1 SAVING "FLOW FRONT FACE " ON UNIT  53 AT TIME STEP 23, STRESS PERIOD   2
1
              HEAD IN LAYER   1 AT END OF TIME STEP  23 IN STRESS PERIOD    2
  ---------------------------------------------------------------------------

            1           2           3           4           5           6           7           8           9          10
 ........................................................................................................................
   1    9.990       8.965       7.921       6.859       5.776       4.672       3.545       2.394       1.217      1.2194E-02
   2    9.990       8.965       7.921       6.859       5.776       4.672       3.545       2.394       1.217      1.2194E-02
   3    9.990       8.965       7.921       6.859       5.776       4.672       3.545       2.394       1.217      1.2194E-02
   4    9.990       8.965       7.921       6.859       5.776       4.672       3.545       2.394       1.217      1.2194E-02
   5    9.990       8.965       7.921       6.859       5.776       4.672       3.545       2.394       1.217      1.2194E-02
   6    9.990       8.965       7.921       6.859       5.776       4.672       3.545       2.394       1.217      1.2194E-02
   7    9.990       8.965       7.921       6.859       5.776       4.672       3.545       2.394       1.217      1.2194E-02
   8    9.990       8.965       7.921       6.859       5.776       4.672       3.545       2.394       1.217      1.2194E-02
   9    9.990       8.965       7.921       6.859       5.776       4.672       3.545       2.394       1.217      1.2194E-02
  10    9.990       8.965       7.921       6.859       5.776       4.672       3.545       2.394       1.217      1.2194E-02

 HEAD WILL BE SAVED ON UNIT   51 AT END OF TIME STEP  23, STRESS PERIOD    2

 DRAWDOWN WILL BE SAVED ON UNIT   52 AT END OF TIME STEP  23, STRESS PERIOD    2
1
  VOLUMETRIC BUDGET FOR ENTIRE MODEL AT END OF TIME STEP 23 IN STRESS PERIOD   2
  ------------------------------------------------------------------------------

     CUMULATIVE VOLUMES      L**3       RATES FOR THIS TIME STEP      L**3/T
     ------------------                 ------------------------

           IN:                                      IN:
           ---                                      ---
             STORAGE =       9.7656E-03               STORAGE =           0.0000
       CONSTANT HEAD =           0.0000         CONSTANT HEAD =           0.0000
               WELLS =           0.0000                 WELLS =           0.0000
     HEAD DEP BOUNDS =       14633.1328       HEAD DEP BOUNDS =         609.7147

            TOTAL IN =       14633.1426              TOTAL IN =         609.7147

          OUT:                                     OUT:
          ----                                     ----
             STORAGE =           0.1232               STORAGE =       5.3978E-03
       CONSTANT HEAD =           0.0000         CONSTANT HEAD =           0.0000
               WELLS =           0.0000                 WELLS =           0.0000
     HEAD DEP BOUNDS =       14632.5342       HEAD DEP BOUNDS =         609.6888

           TOTAL OUT =       14632.6572             TOTAL OUT =         609.6942

            IN - OUT =           0.4854              IN - OUT =       2.0447E-02

 PERCENT DISCREPANCY =           0.00     PERCENT DISCREPANCY =           0.00






          TIME SUMMARY AT END OF TIME STEP  23 IN STRESS PERIOD    2
                    SECONDS     MINUTES      HOURS       DAYS        YEARS
                    -----------------------------------------------------------
   TIME STEP LENGTH  86400.      1440.0      24.000      1.0000     2.73785E-03
 STRESS PERIOD TIME 1.98720E+06  33120.      552.00      23.000     6.29706E-02
         TOTAL TIME 2.07360E+06  34560.      576.00      24.000     6.57084E-02
1
 
 SOLVING FOR HEAD 

 OUTPUT CONTROL FOR STRESS PERIOD    2   TIME STEP  24
    SAVE HEAD FOR ALL LAYERS
    SAVE DRAWDOWN FOR ALL LAYERS
    SAVE BUDGET
    PRINT HEAD FOR ALL LAYERS
    PRINT BUDGET
 UBDSV1 SAVING "         STORAGE" ON UNIT  53 AT TIME STEP 24, STRESS PERIOD   2
 UBDSV2 SAVING "   CONSTANT HEAD" ON UNIT  53 AT TIME STEP 24, STRESS PERIOD   2
 UBDSV1 SAVING "FLOW RIGHT FACE " ON UNIT  53 AT TIME STEP 24, STRESS PERIOD   2
 UBDSV1 SAVING "FLOW FRONT FACE " ON UNIT  53 AT TIME STEP 24, STRESS PERIOD   2
1
              HEAD IN LAYER   1 AT END OF TIME STEP  24 IN STRESS PERIOD    2
  ---------------------------------------------------------------------------

            1           2           3           4           5           6           7           8           9          10
 ........................................................................................................................
   1    9.990       8.965       7.921       6.859       5.776       4.672       3.545       2.394       1.217      1.2194E-02
   2    9.990       8.965       7.921       6.859       5.776       4.672       3.545       2.394       1.217      1.2194E-02
   3    9.990       8.965       7.921       6.859       5.776       4.672       3.545       2.394       1.217      1.2194E-02
   4    9.990       8.965       7.921       6.859       5.776       4.672       3.545       2.394       1.217      1.2194E-02
   5    9.990       8.965       7.921       6.859       5.776       4.672       3.545       2.394       1.217      1.2194E-02
   6    9.990       8.965       7.921       6.859       5.776       4.672       3.545       2.394       1.217      1.2194E-02
   7    9.990       8.965       7.921       6.859       5.776       4.672       3.545       2.394       1.217      1.2194E-02
   8    9.990       8.965       7.921       6.859       5.776       4.672       3.545       2.394       1.217      1.2194E-02
   9    9.990       8.965       7.921       6.859       5.776       4.672       3.545       2.394       1.217      1.2194E-02
  10    9.990       8.965       7.921       6.859       5.776       4.672       3.545       2.394       1.217      1.2194E-02

 HEAD WILL BE SAVED ON UNIT   51 AT END OF TIME STEP  24, STRESS PERIOD    2

 DRAWDOWN WILL BE SAVED ON UNIT   52 AT END OF TIME STEP  24, STRESS PERIOD    2
1
  VOLUMETRIC BUDGET FOR ENTIRE MODEL AT END OF TIME STEP 24 IN STRESS PERIOD   2
  ------------------------------------------------------------------------------

     CUMULATIVE VOLUMES      L**3       RATES FOR THIS TIME STEP      L**3/T
     ------------------                 ------------------------

           IN:                                      IN:
           ---                                      ---
             STORAGE =       9.7656E-03               STORAGE =           0.0000
       CONSTANT HEAD =           0.0000         CONSTANT HEAD =           0.0000
               WELLS =           0.0000                 WELLS =           0.0000
     HEAD DEP BOUNDS =       15242.8477       HEAD DEP BOUNDS =         609.7147

            TOTAL IN =       15242.8574              TOTAL IN =         609.7147

          OUT:                                     OUT:
          ----                                     ----
             STORAGE =           0.1286               STORAGE =       5.3978E-03
       CONSTANT HEAD =           0.0000         CONSTANT HEAD =           0.0000
               WELLS =           0.0000                 WELLS =           0.0000
     HEAD DEP BOUNDS =       15242.2227       HEAD DEP BOUNDS =         609.6888

           TOTAL OUT =       15242.3516             TOTAL OUT =         609.6942

            IN - OUT =           0.5059              IN - OUT =       2.0447E-02

 PERCENT DISCREPANCY =           0.00     PERCENT DISCREPANCY =           0.00






          TIME SUMMARY AT END OF TIME STEP  24 IN STRESS PERIOD    2
                    SECONDS     MINUTES      HOURS       DAYS        YEARS
                    -----------------------------------------------------------
   TIME STEP LENGTH  86400.      1440.0      24.000      1.0000     2.73785E-03
 STRESS PERIOD TIME 2.07360E+06  34560.      576.00      24.000     6.57084E-02
         TOTAL TIME 2.16000E+06  36000.      600.00      25.000     6.84463E-02
1
 
 SOLVING FOR HEAD 

 OUTPUT CONTROL FOR STRESS PERIOD    2   TIME STEP  25
    SAVE HEAD FOR ALL LAYERS
    SAVE DRAWDOWN FOR ALL LAYERS
    SAVE BUDGET
    PRINT HEAD FOR ALL LAYERS
    PRINT BUDGET
 UBDSV1 SAVING "         STORAGE" ON UNIT  53 AT TIME STEP 25, STRESS PERIOD   2
 UBDSV2 SAVING "   CONSTANT HEAD" ON UNIT  53 AT TIME STEP 25, STRESS PERIOD   2
 UBDSV1 SAVING "FLOW RIGHT FACE " ON UNIT  53 AT TIME STEP 25, STRESS PERIOD   2
 UBDSV1 SAVING "FLOW FRONT FACE " ON UNIT  53 AT TIME STEP 25, STRESS PERIOD   2
1
              HEAD IN LAYER   1 AT END OF TIME STEP  25 IN STRESS PERIOD    2
  ---------------------------------------------------------------------------

            1           2           3           4           5           6           7           8           9          10
 ........................................................................................................................
   1    9.990       8.965       7.921       6.859       5.776       4.672       3.545       2.394       1.217      1.2194E-02
   2    9.990       8.965       7.921       6.859       5.776       4.672       3.545       2.394       1.217      1.2194E-02
   3    9.990       8.965       7.921       6.859       5.776       4.672       3.545       2.394       1.217      1.2194E-02
   4    9.990       8.965       7.921       6.859       5.776       4.672       3.545       2.394       1.217      1.2194E-02
   5    9.990       8.965       7.921       6.859       5.776       4.672       3.545       2.394       1.217      1.2194E-02
   6    9.990       8.965       7.921       6.859       5.776       4.672       3.545       2.394       1.217      1.2194E-02
   7    9.990       8.965       7.921       6.859       5.776       4.672       3.545       2.394       1.217      1.2194E-02
   8    9.990       8.965       7.921       6.859       5.776       4.672       3.545       2.394       1.217      1.2194E-02
   9    9.990       8.965       7.921       6.859       5.776       4.672       3.545       2.394       1.217      1.2194E-02
  10    9.990       8.965       7.921       6.859       5.776       4.672       3.545       2.394       1.217      1.2194E-02

 HEAD WILL BE SAVED ON UNIT   51 AT END OF TIME STEP  25, STRESS PERIOD    2

 DRAWDOWN WILL BE SAVED ON UNIT   52 AT END OF TIME STEP  25, STRESS PERIOD    2
1
  VOLUMETRIC BUDGET FOR ENTIRE MODEL AT END OF TIME STEP 25 IN STRESS PERIOD   2
  ------------------------------------------------------------------------------

     CUMULATIVE VOLUMES      L**3       RATES FOR THIS TIME STEP      L**3/T
     ------------------                 ------------------------

           IN:                                      IN:
           ---                                      ---
             STORAGE =       9.7656E-03               STORAGE =           0.0000
       CONSTANT HEAD =           0.0000         CONSTANT HEAD =           0.0000
               WELLS =           0.0000                 WELLS =           0.0000
     HEAD DEP BOUNDS =       15852.5625       HEAD DEP BOUNDS =         609.7147

            TOTAL IN =       15852.5723              TOTAL IN =         609.7147

          OUT:                                     OUT:
          ----                                     ----
             STORAGE =           0.1340               STORAGE =       5.3978E-03
       CONSTANT HEAD =           0.0000         CONSTANT HEAD =           0.0000
               WELLS =           0.0000                 WELLS =           0.0000
     HEAD DEP BOUNDS =       15851.9111       HEAD DEP BOUNDS =         609.6888

           TOTAL OUT =       15852.0449             TOTAL OUT =         609.6942

            IN - OUT =           0.5273              IN - OUT =       2.0447E-02

 PERCENT DISCREPANCY =           0.00     PERCENT DISCREPANCY =           0.00






          TIME SUMMARY AT END OF TIME STEP  25 IN STRESS PERIOD    2
                    SECONDS     MINUTES      HOURS       DAYS        YEARS
                    -----------------------------------------------------------
   TIME STEP LENGTH  86400.      1440.0      24.000      1.0000     2.73785E-03
 STRESS PERIOD TIME 2.16000E+06  36000.      600.00      25.000     6.84463E-02
         TOTAL TIME 2.24640E+06  37440.      624.00      26.000     7.11841E-02
1
 
 SOLVING FOR HEAD 

 OUTPUT CONTROL FOR STRESS PERIOD    2   TIME STEP  26
    SAVE HEAD FOR ALL LAYERS
    SAVE DRAWDOWN FOR ALL LAYERS
    SAVE BUDGET
    PRINT HEAD FOR ALL LAYERS
    PRINT BUDGET
 UBDSV1 SAVING "         STORAGE" ON UNIT  53 AT TIME STEP 26, STRESS PERIOD   2
 UBDSV2 SAVING "   CONSTANT HEAD" ON UNIT  53 AT TIME STEP 26, STRESS PERIOD   2
 UBDSV1 SAVING "FLOW RIGHT FACE " ON UNIT  53 AT TIME STEP 26, STRESS PERIOD   2
 UBDSV1 SAVING "FLOW FRONT FACE " ON UNIT  53 AT TIME STEP 26, STRESS PERIOD   2
1
              HEAD IN LAYER   1 AT END OF TIME STEP  26 IN STRESS PERIOD    2
  ---------------------------------------------------------------------------

            1           2           3           4           5           6           7           8           9          10
 ........................................................................................................................
   1    9.990       8.965       7.921       6.859       5.776       4.672       3.545       2.394       1.217      1.2194E-02
   2    9.990       8.965       7.921       6.859       5.776       4.672       3.545       2.394       1.217      1.2194E-02
   3    9.990       8.965       7.921       6.859       5.776       4.672       3.545       2.394       1.217      1.2194E-02
   4    9.990       8.965       7.921       6.859       5.776       4.672       3.545       2.394       1.217      1.2194E-02
   5    9.990       8.965       7.921       6.859       5.776       4.672       3.545       2.394       1.217      1.2194E-02
   6    9.990       8.965       7.921       6.859       5.776       4.672       3.545       2.394       1.217      1.2194E-02
   7    9.990       8.965       7.921       6.859       5.776       4.672       3.545       2.394       1.217      1.2194E-02
   8    9.990       8.965       7.921       6.859       5.776       4.672       3.545       2.394       1.217      1.2194E-02
   9    9.990       8.965       7.921       6.859       5.776       4.672       3.545       2.394       1.217      1.2194E-02
  10    9.990       8.965       7.921       6.859       5.776       4.672       3.545       2.394       1.217      1.2194E-02

 HEAD WILL BE SAVED ON UNIT   51 AT END OF TIME STEP  26, STRESS PERIOD    2

 DRAWDOWN WILL BE SAVED ON UNIT   52 AT END OF TIME STEP  26, STRESS PERIOD    2
1
  VOLUMETRIC BUDGET FOR ENTIRE MODEL AT END OF TIME STEP 26 IN STRESS PERIOD   2
  ------------------------------------------------------------------------------

     CUMULATIVE VOLUMES      L**3       RATES FOR THIS TIME STEP      L**3/T
     ------------------                 ------------------------

           IN:                                      IN:
           ---                                      ---
             STORAGE =       9.7656E-03               STORAGE =           0.0000
       CONSTANT HEAD =           0.0000         CONSTANT HEAD =           0.0000
               WELLS =           0.0000                 WELLS =           0.0000
     HEAD DEP BOUNDS =       16462.2773       HEAD DEP BOUNDS =         609.7147

            TOTAL IN =       16462.2871              TOTAL IN =         609.7147

          OUT:                                     OUT:
          ----                                     ----
             STORAGE =           0.1394               STORAGE =       5.3978E-03
       CONSTANT HEAD =           0.0000         CONSTANT HEAD =           0.0000
               WELLS =           0.0000                 WELLS =           0.0000
     HEAD DEP BOUNDS =       16461.5996       HEAD DEP BOUNDS =         609.6888

           TOTAL OUT =       16461.7383             TOTAL OUT =         609.6942

            IN - OUT =           0.5488              IN - OUT =       2.0447E-02

 PERCENT DISCREPANCY =           0.00     PERCENT DISCREPANCY =           0.00






          TIME SUMMARY AT END OF TIME STEP  26 IN STRESS PERIOD    2
                    SECONDS     MINUTES      HOURS       DAYS        YEARS
                    -----------------------------------------------------------
   TIME STEP LENGTH  86400.      1440.0      24.000      1.0000     2.73785E-03
 STRESS PERIOD TIME 2.24640E+06  37440.      624.00      26.000     7.11841E-02
         TOTAL TIME 2.33280E+06  38880.      648.00      27.000     7.39220E-02
1
 
 SOLVING FOR HEAD 

 OUTPUT CONTROL FOR STRESS PERIOD    2   TIME STEP  27
    SAVE HEAD FOR ALL LAYERS
    SAVE DRAWDOWN FOR ALL LAYERS
    SAVE BUDGET
    PRINT HEAD FOR ALL LAYERS
    PRINT BUDGET
 UBDSV1 SAVING "         STORAGE" ON UNIT  53 AT TIME STEP 27, STRESS PERIOD   2
 UBDSV2 SAVING "   CONSTANT HEAD" ON UNIT  53 AT TIME STEP 27, STRESS PERIOD   2
 UBDSV1 SAVING "FLOW RIGHT FACE " ON UNIT  53 AT TIME STEP 27, STRESS PERIOD   2
 UBDSV1 SAVING "FLOW FRONT FACE " ON UNIT  53 AT TIME STEP 27, STRESS PERIOD   2
1
              HEAD IN LAYER   1 AT END OF TIME STEP  27 IN STRESS PERIOD    2
  ---------------------------------------------------------------------------

            1           2           3           4           5           6           7           8           9          10
 ........................................................................................................................
   1    9.990       8.965       7.921       6.859       5.776       4.672       3.545       2.394       1.217      1.2194E-02
   2    9.990       8.965       7.921       6.859       5.776       4.672       3.545       2.394       1.217      1.2194E-02
   3    9.990       8.965       7.921       6.859       5.776       4.672       3.545       2.394       1.217      1.2194E-02
   4    9.990       8.965       7.921       6.859       5.776       4.672       3.545       2.394       1.217      1.2194E-02
   5    9.990       8.965       7.921       6.859       5.776       4.672       3.545       2.394       1.217      1.2194E-02
   6    9.990       8.965       7.921       6.859       5.776       4.672       3.545       2.394       1.217      1.2194E-02
   7    9.990       8.965       7.921       6.859       5.776       4.672       3.545       2.394       1.217      1.2194E-02
   8    9.990       8.965       7.921       6.859       5.776       4.672       3.545       2.394       1.217      1.2194E-02
   9    9.990       8.965       7.921       6.859       5.776       4.672       3.545       2.394       1.217      1.2194E-02
  10    9.990       8.965       7.921       6.859       5.776       4.672       3.545       2.394       1.217      1.2194E-02

 HEAD WILL BE SAVED ON UNIT   51 AT END OF TIME STEP  27, STRESS PERIOD    2

 DRAWDOWN WILL BE SAVED ON UNIT   52 AT END OF TIME STEP  27, STRESS PERIOD    2
1
  VOLUMETRIC BUDGET FOR ENTIRE MODEL AT END OF TIME STEP 27 IN STRESS PERIOD   2
  ------------------------------------------------------------------------------

     CUMULATIVE VOLUMES      L**3       RATES FOR THIS TIME STEP      L**3/T
     ------------------                 ------------------------

           IN:                                      IN:
           ---                                      ---
             STORAGE =       9.7656E-03               STORAGE =           0.0000
       CONSTANT HEAD =           0.0000         CONSTANT HEAD =           0.0000
               WELLS =           0.0000                 WELLS =           0.0000
     HEAD DEP BOUNDS =       17071.9922       HEAD DEP BOUNDS =         609.7147

            TOTAL IN =       17072.0020              TOTAL IN =         609.7147

          OUT:                                     OUT:
          ----                                     ----
             STORAGE =           0.1448               STORAGE =       5.3978E-03
       CONSTANT HEAD =           0.0000         CONSTANT HEAD =           0.0000
               WELLS =           0.0000                 WELLS =           0.0000
     HEAD DEP BOUNDS =       17071.2891       HEAD DEP BOUNDS =         609.6888

           TOTAL OUT =       17071.4336             TOTAL OUT =         609.6942

            IN - OUT =           0.5684              IN - OUT =       2.0447E-02

 PERCENT DISCREPANCY =           0.00     PERCENT DISCREPANCY =           0.00






          TIME SUMMARY AT END OF TIME STEP  27 IN STRESS PERIOD    2
                    SECONDS     MINUTES      HOURS       DAYS        YEARS
                    -----------------------------------------------------------
   TIME STEP LENGTH  86400.      1440.0      24.000      1.0000     2.73785E-03
 STRESS PERIOD TIME 2.33280E+06  38880.      648.00      27.000     7.39220E-02
         TOTAL TIME 2.41920E+06  40320.      672.00      28.000     7.66598E-02
1
 
 SOLVING FOR HEAD 

 OUTPUT CONTROL FOR STRESS PERIOD    2   TIME STEP  28
    SAVE HEAD FOR ALL LAYERS
    SAVE DRAWDOWN FOR ALL LAYERS
    SAVE BUDGET
    PRINT HEAD FOR ALL LAYERS
    PRINT BUDGET
 UBDSV1 SAVING "         STORAGE" ON UNIT  53 AT TIME STEP 28, STRESS PERIOD   2
 UBDSV2 SAVING "   CONSTANT HEAD" ON UNIT  53 AT TIME STEP 28, STRESS PERIOD   2
 UBDSV1 SAVING "FLOW RIGHT FACE " ON UNIT  53 AT TIME STEP 28, STRESS PERIOD   2
 UBDSV1 SAVING "FLOW FRONT FACE " ON UNIT  53 AT TIME STEP 28, STRESS PERIOD   2
1
              HEAD IN LAYER   1 AT END OF TIME STEP  28 IN STRESS PERIOD    2
  ---------------------------------------------------------------------------

            1           2           3           4           5           6           7           8           9          10
 ........................................................................................................................
   1    9.990       8.965       7.921       6.859       5.776       4.672       3.545       2.394       1.217      1.2194E-02
   2    9.990       8.965       7.921       6.859       5.776       4.672       3.545       2.394       1.217      1.2194E-02
   3    9.990       8.965       7.921       6.859       5.776       4.672       3.545       2.394       1.217      1.2194E-02
   4    9.990       8.965       7.921       6.859       5.776       4.672       3.545       2.394       1.217      1.2194E-02
   5    9.990       8.965       7.921       6.859       5.776       4.672       3.545       2.394       1.217      1.2194E-02
   6    9.990       8.965       7.921       6.859       5.776       4.672       3.545       2.394       1.217      1.2194E-02
   7    9.990       8.965       7.921       6.859       5.776       4.672       3.545       2.394       1.217      1.2194E-02
   8    9.990       8.965       7.921       6.859       5.776       4.672       3.545       2.394       1.217      1.2194E-02
   9    9.990       8.965       7.921       6.859       5.776       4.672       3.545       2.394       1.217      1.2194E-02
  10    9.990       8.965       7.921       6.859       5.776       4.672       3.545       2.394       1.217      1.2194E-02

 HEAD WILL BE SAVED ON UNIT   51 AT END OF TIME STEP  28, STRESS PERIOD    2

 DRAWDOWN WILL BE SAVED ON UNIT   52 AT END OF TIME STEP  28, STRESS PERIOD    2
1
  VOLUMETRIC BUDGET FOR ENTIRE MODEL AT END OF TIME STEP 28 IN STRESS PERIOD   2
  ------------------------------------------------------------------------------

     CUMULATIVE VOLUMES      L**3       RATES FOR THIS TIME STEP      L**3/T
     ------------------                 ------------------------

           IN:                                      IN:
           ---                                      ---
             STORAGE =       9.7656E-03               STORAGE =           0.0000
       CONSTANT HEAD =           0.0000         CONSTANT HEAD =           0.0000
               WELLS =           0.0000                 WELLS =           0.0000
     HEAD DEP BOUNDS =       17681.7070       HEAD DEP BOUNDS =         609.7147

            TOTAL IN =       17681.7168              TOTAL IN =         609.7147

          OUT:                                     OUT:
          ----                                     ----
             STORAGE =           0.1502               STORAGE =       5.3978E-03
       CONSTANT HEAD =           0.0000         CONSTANT HEAD =           0.0000
               WELLS =           0.0000                 WELLS =           0.0000
     HEAD DEP BOUNDS =       17680.9785       HEAD DEP BOUNDS =         609.6888

           TOTAL OUT =       17681.1289             TOTAL OUT =         609.6942

            IN - OUT =           0.5879              IN - OUT =       2.0447E-02

 PERCENT DISCREPANCY =           0.00     PERCENT DISCREPANCY =           0.00






          TIME SUMMARY AT END OF TIME STEP  28 IN STRESS PERIOD    2
                    SECONDS     MINUTES      HOURS       DAYS        YEARS
                    -----------------------------------------------------------
   TIME STEP LENGTH  86400.      1440.0      24.000      1.0000     2.73785E-03
 STRESS PERIOD TIME 2.41920E+06  40320.      672.00      28.000     7.66598E-02
         TOTAL TIME 2.50560E+06  41760.      696.00      29.000     7.93977E-02
1
 
 SOLVING FOR HEAD 

 OUTPUT CONTROL FOR STRESS PERIOD    2   TIME STEP  29
    SAVE HEAD FOR ALL LAYERS
    SAVE DRAWDOWN FOR ALL LAYERS
    SAVE BUDGET
    PRINT HEAD FOR ALL LAYERS
    PRINT BUDGET
 UBDSV1 SAVING "         STORAGE" ON UNIT  53 AT TIME STEP 29, STRESS PERIOD   2
 UBDSV2 SAVING "   CONSTANT HEAD" ON UNIT  53 AT TIME STEP 29, STRESS PERIOD   2
 UBDSV1 SAVING "FLOW RIGHT FACE " ON UNIT  53 AT TIME STEP 29, STRESS PERIOD   2
 UBDSV1 SAVING "FLOW FRONT FACE " ON UNIT  53 AT TIME STEP 29, STRESS PERIOD   2
1
              HEAD IN LAYER   1 AT END OF TIME STEP  29 IN STRESS PERIOD    2
  ---------------------------------------------------------------------------

            1           2           3           4           5           6           7           8           9          10
 ........................................................................................................................
   1    9.990       8.965       7.921       6.859       5.776       4.672       3.545       2.394       1.217      1.2194E-02
   2    9.990       8.965       7.921       6.859       5.776       4.672       3.545       2.394       1.217      1.2194E-02
   3    9.990       8.965       7.921       6.859       5.776       4.672       3.545       2.394       1.217      1.2194E-02
   4    9.990       8.965       7.921       6.859       5.776       4.672       3.545       2.394       1.217      1.2194E-02
   5    9.990       8.965       7.921       6.859       5.776       4.672       3.545       2.394       1.217      1.2194E-02
   6    9.990       8.965       7.921       6.859       5.776       4.672       3.545       2.394       1.217      1.2194E-02
   7    9.990       8.965       7.921       6.859       5.776       4.672       3.545       2.394       1.217      1.2194E-02
   8    9.990       8.965       7.921       6.859       5.776       4.672       3.545       2.394       1.217      1.2194E-02
   9    9.990       8.965       7.921       6.859       5.776       4.672       3.545       2.394       1.217      1.2194E-02
  10    9.990       8.965       7.921       6.859       5.776       4.672       3.545       2.394       1.217      1.2194E-02

 HEAD WILL BE SAVED ON UNIT   51 AT END OF TIME STEP  29, STRESS PERIOD    2

 DRAWDOWN WILL BE SAVED ON UNIT   52 AT END OF TIME STEP  29, STRESS PERIOD    2
1
  VOLUMETRIC BUDGET FOR ENTIRE MODEL AT END OF TIME STEP 29 IN STRESS PERIOD   2
  ------------------------------------------------------------------------------

     CUMULATIVE VOLUMES      L**3       RATES FOR THIS TIME STEP      L**3/T
     ------------------                 ------------------------

           IN:                                      IN:
           ---                                      ---
             STORAGE =       9.7656E-03               STORAGE =           0.0000
       CONSTANT HEAD =           0.0000         CONSTANT HEAD =           0.0000
               WELLS =           0.0000                 WELLS =           0.0000
     HEAD DEP BOUNDS =       18291.4219       HEAD DEP BOUNDS =         609.7147

            TOTAL IN =       18291.4316              TOTAL IN =         609.7147

          OUT:                                     OUT:
          ----                                     ----
             STORAGE =           0.1556               STORAGE =       5.3978E-03
       CONSTANT HEAD =           0.0000         CONSTANT HEAD =           0.0000
               WELLS =           0.0000                 WELLS =           0.0000
     HEAD DEP BOUNDS =       18290.6680       HEAD DEP BOUNDS =         609.6888

           TOTAL OUT =       18290.8242             TOTAL OUT =         609.6942

            IN - OUT =           0.6074              IN - OUT =       2.0447E-02

 PERCENT DISCREPANCY =           0.00     PERCENT DISCREPANCY =           0.00






          TIME SUMMARY AT END OF TIME STEP  29 IN STRESS PERIOD    2
                    SECONDS     MINUTES      HOURS       DAYS        YEARS
                    -----------------------------------------------------------
   TIME STEP LENGTH  86400.      1440.0      24.000      1.0000     2.73785E-03
 STRESS PERIOD TIME 2.50560E+06  41760.      696.00      29.000     7.93977E-02
         TOTAL TIME 2.59200E+06  43200.      720.00      30.000     8.21355E-02
1
 
 SOLVING FOR HEAD 

 OUTPUT CONTROL FOR STRESS PERIOD    2   TIME STEP  30
    SAVE HEAD FOR ALL LAYERS
    SAVE DRAWDOWN FOR ALL LAYERS
    SAVE BUDGET
    PRINT HEAD FOR ALL LAYERS
    PRINT BUDGET
 UBDSV1 SAVING "         STORAGE" ON UNIT  53 AT TIME STEP 30, STRESS PERIOD   2
 UBDSV2 SAVING "   CONSTANT HEAD" ON UNIT  53 AT TIME STEP 30, STRESS PERIOD   2
 UBDSV1 SAVING "FLOW RIGHT FACE " ON UNIT  53 AT TIME STEP 30, STRESS PERIOD   2
 UBDSV1 SAVING "FLOW FRONT FACE " ON UNIT  53 AT TIME STEP 30, STRESS PERIOD   2
1
              HEAD IN LAYER   1 AT END OF TIME STEP  30 IN STRESS PERIOD    2
  ---------------------------------------------------------------------------

            1           2           3           4           5           6           7           8           9          10
 ........................................................................................................................
   1    9.990       8.965       7.921       6.859       5.776       4.672       3.545       2.394       1.217      1.2194E-02
   2    9.990       8.965       7.921       6.859       5.776       4.672       3.545       2.394       1.217      1.2194E-02
   3    9.990       8.965       7.921       6.859       5.776       4.672       3.545       2.394       1.217      1.2194E-02
   4    9.990       8.965       7.921       6.859       5.776       4.672       3.545       2.394       1.217      1.2194E-02
   5    9.990       8.965       7.921       6.859       5.776       4.672       3.545       2.394       1.217      1.2194E-02
   6    9.990       8.965       7.921       6.859       5.776       4.672       3.545       2.394       1.217      1.2194E-02
   7    9.990       8.965       7.921       6.859       5.776       4.672       3.545       2.394       1.217      1.2194E-02
   8    9.990       8.965       7.921       6.859       5.776       4.672       3.545       2.394       1.217      1.2194E-02
   9    9.990       8.965       7.921       6.859       5.776       4.672       3.545       2.394       1.217      1.2194E-02
  10    9.990       8.965       7.921       6.859       5.776       4.672       3.545       2.394       1.217      1.2194E-02

 HEAD WILL BE SAVED ON UNIT   51 AT END OF TIME STEP  30, STRESS PERIOD    2

 DRAWDOWN WILL BE SAVED ON UNIT   52 AT END OF TIME STEP  30, STRESS PERIOD    2
1
  VOLUMETRIC BUDGET FOR ENTIRE MODEL AT END OF TIME STEP 30 IN STRESS PERIOD   2
  ------------------------------------------------------------------------------

     CUMULATIVE VOLUMES      L**3       RATES FOR THIS TIME STEP      L**3/T
     ------------------                 ------------------------

           IN:                                      IN:
           ---                                      ---
             STORAGE =       9.7656E-03               STORAGE =           0.0000
       CONSTANT HEAD =           0.0000         CONSTANT HEAD =           0.0000
               WELLS =           0.0000                 WELLS =           0.0000
     HEAD DEP BOUNDS =       18901.1367       HEAD DEP BOUNDS =         609.7147

            TOTAL IN =       18901.1465              TOTAL IN =         609.7147

          OUT:                                     OUT:
          ----                                     ----
             STORAGE =           0.1610               STORAGE =       5.3978E-03
       CONSTANT HEAD =           0.0000         CONSTANT HEAD =           0.0000
               WELLS =           0.0000                 WELLS =           0.0000
     HEAD DEP BOUNDS =       18900.3574       HEAD DEP BOUNDS =         609.6888

           TOTAL OUT =       18900.5176             TOTAL OUT =         609.6942

            IN - OUT =           0.6289              IN - OUT =       2.0447E-02

 PERCENT DISCREPANCY =           0.00     PERCENT DISCREPANCY =           0.00






          TIME SUMMARY AT END OF TIME STEP  30 IN STRESS PERIOD    2
                    SECONDS     MINUTES      HOURS       DAYS        YEARS
                    -----------------------------------------------------------
   TIME STEP LENGTH  86400.      1440.0      24.000      1.0000     2.73785E-03
 STRESS PERIOD TIME 2.59200E+06  43200.      720.00      30.000     8.21355E-02
         TOTAL TIME 2.67840E+06  44640.      744.00      31.000     8.48734E-02
1
 
 SOLVING FOR HEAD 

 OUTPUT CONTROL FOR STRESS PERIOD    2   TIME STEP  31
    SAVE HEAD FOR ALL LAYERS
    SAVE DRAWDOWN FOR ALL LAYERS
    SAVE BUDGET
    PRINT HEAD FOR ALL LAYERS
    PRINT BUDGET
 UBDSV1 SAVING "         STORAGE" ON UNIT  53 AT TIME STEP 31, STRESS PERIOD   2
 UBDSV2 SAVING "   CONSTANT HEAD" ON UNIT  53 AT TIME STEP 31, STRESS PERIOD   2
 UBDSV1 SAVING "FLOW RIGHT FACE " ON UNIT  53 AT TIME STEP 31, STRESS PERIOD   2
 UBDSV1 SAVING "FLOW FRONT FACE " ON UNIT  53 AT TIME STEP 31, STRESS PERIOD   2
1
              HEAD IN LAYER   1 AT END OF TIME STEP  31 IN STRESS PERIOD    2
  ---------------------------------------------------------------------------

            1           2           3           4           5           6           7           8           9          10
 ........................................................................................................................
   1    9.990       8.965       7.921       6.859       5.776       4.672       3.545       2.394       1.217      1.2194E-02
   2    9.990       8.965       7.921       6.859       5.776       4.672       3.545       2.394       1.217      1.2194E-02
   3    9.990       8.965       7.921       6.859       5.776       4.672       3.545       2.394       1.217      1.2194E-02
   4    9.990       8.965       7.921       6.859       5.776       4.672       3.545       2.394       1.217      1.2194E-02
   5    9.990       8.965       7.921       6.859       5.776       4.672       3.545       2.394       1.217      1.2194E-02
   6    9.990       8.965       7.921       6.859       5.776       4.672       3.545       2.394       1.217      1.2194E-02
   7    9.990       8.965       7.921       6.859       5.776       4.672       3.545       2.394       1.217      1.2194E-02
   8    9.990       8.965       7.921       6.859       5.776       4.672       3.545       2.394       1.217      1.2194E-02
   9    9.990       8.965       7.921       6.859       5.776       4.672       3.545       2.394       1.217      1.2194E-02
  10    9.990       8.965       7.921       6.859       5.776       4.672       3.545       2.394       1.217      1.2194E-02

 HEAD WILL BE SAVED ON UNIT   51 AT END OF TIME STEP  31, STRESS PERIOD    2

 DRAWDOWN WILL BE SAVED ON UNIT   52 AT END OF TIME STEP  31, STRESS PERIOD    2
1
  VOLUMETRIC BUDGET FOR ENTIRE MODEL AT END OF TIME STEP 31 IN STRESS PERIOD   2
  ------------------------------------------------------------------------------

     CUMULATIVE VOLUMES      L**3       RATES FOR THIS TIME STEP      L**3/T
     ------------------                 ------------------------

           IN:                                      IN:
           ---                                      ---
             STORAGE =       9.7656E-03               STORAGE =           0.0000
       CONSTANT HEAD =           0.0000         CONSTANT HEAD =           0.0000
               WELLS =           0.0000                 WELLS =           0.0000
     HEAD DEP BOUNDS =       19510.8516       HEAD DEP BOUNDS =         609.7147

            TOTAL IN =       19510.8613              TOTAL IN =         609.7147

          OUT:                                     OUT:
          ----                                     ----
             STORAGE =           0.1664               STORAGE =       5.3978E-03
       CONSTANT HEAD =           0.0000         CONSTANT HEAD =           0.0000
               WELLS =           0.0000                 WELLS =           0.0000
     HEAD DEP BOUNDS =       19510.0469       HEAD DEP BOUNDS =         609.6888

           TOTAL OUT =       19510.2129             TOTAL OUT =         609.6942

            IN - OUT =           0.6484              IN - OUT =       2.0447E-02

 PERCENT DISCREPANCY =           0.00     PERCENT DISCREPANCY =           0.00






          TIME SUMMARY AT END OF TIME STEP  31 IN STRESS PERIOD    2
                    SECONDS     MINUTES      HOURS       DAYS        YEARS
                    -----------------------------------------------------------
   TIME STEP LENGTH  86400.      1440.0      24.000      1.0000     2.73785E-03
 STRESS PERIOD TIME 2.67840E+06  44640.      744.00      31.000     8.48734E-02
         TOTAL TIME 2.76480E+06  46080.      768.00      32.000     8.76112E-02
1
 
 SOLVING FOR HEAD 

 OUTPUT CONTROL FOR STRESS PERIOD    2   TIME STEP  32
    SAVE HEAD FOR ALL LAYERS
    SAVE DRAWDOWN FOR ALL LAYERS
    SAVE BUDGET
    PRINT HEAD FOR ALL LAYERS
    PRINT BUDGET
 UBDSV1 SAVING "         STORAGE" ON UNIT  53 AT TIME STEP 32, STRESS PERIOD   2
 UBDSV2 SAVING "   CONSTANT HEAD" ON UNIT  53 AT TIME STEP 32, STRESS PERIOD   2
 UBDSV1 SAVING "FLOW RIGHT FACE " ON UNIT  53 AT TIME STEP 32, STRESS PERIOD   2
 UBDSV1 SAVING "FLOW FRONT FACE " ON UNIT  53 AT TIME STEP 32, STRESS PERIOD   2
1
              HEAD IN LAYER   1 AT END OF TIME STEP  32 IN STRESS PERIOD    2
  ---------------------------------------------------------------------------

            1           2           3           4           5           6           7           8           9          10
 ........................................................................................................................
   1    9.990       8.965       7.921       6.859       5.776       4.672       3.545       2.394       1.217      1.2194E-02
   2    9.990       8.965       7.921       6.859       5.776       4.672       3.545       2.394       1.217      1.2194E-02
   3    9.990       8.965       7.921       6.859       5.776       4.672       3.545       2.394       1.217      1.2194E-02
   4    9.990       8.965       7.921       6.859       5.776       4.672       3.545       2.394       1.217      1.2194E-02
   5    9.990       8.965       7.921       6.859       5.776       4.672       3.545       2.394       1.217      1.2194E-02
   6    9.990       8.965       7.921       6.859       5.776       4.672       3.545       2.394       1.217      1.2194E-02
   7    9.990       8.965       7.921       6.859       5.776       4.672       3.545       2.394       1.217      1.2194E-02
   8    9.990       8.965       7.921       6.859       5.776       4.672       3.545       2.394       1.217      1.2194E-02
   9    9.990       8.965       7.921       6.859       5.776       4.672       3.545       2.394       1.217      1.2194E-02
  10    9.990       8.965       7.921       6.859       5.776       4.672       3.545       2.394       1.217      1.2194E-02

 HEAD WILL BE SAVED ON UNIT   51 AT END OF TIME STEP  32, STRESS PERIOD    2

 DRAWDOWN WILL BE SAVED ON UNIT   52 AT END OF TIME STEP  32, STRESS PERIOD    2
1
  VOLUMETRIC BUDGET FOR ENTIRE MODEL AT END OF TIME STEP 32 IN STRESS PERIOD   2
  ------------------------------------------------------------------------------

     CUMULATIVE VOLUMES      L**3       RATES FOR THIS TIME STEP      L**3/T
     ------------------                 ------------------------

           IN:                                      IN:
           ---                                      ---
             STORAGE =       9.7656E-03               STORAGE =           0.0000
       CONSTANT HEAD =           0.0000         CONSTANT HEAD =           0.0000
               WELLS =           0.0000                 WELLS =           0.0000
     HEAD DEP BOUNDS =       20120.5664       HEAD DEP BOUNDS =         609.7147

            TOTAL IN =       20120.5762              TOTAL IN =         609.7147

          OUT:                                     OUT:
          ----                                     ----
             STORAGE =           0.1718               STORAGE =       5.3978E-03
       CONSTANT HEAD =           0.0000         CONSTANT HEAD =           0.0000
               WELLS =           0.0000                 WELLS =           0.0000
     HEAD DEP BOUNDS =       20119.7363       HEAD DEP BOUNDS =         609.6888

           TOTAL OUT =       20119.9082             TOTAL OUT =         609.6942

            IN - OUT =           0.6680              IN - OUT =       2.0447E-02

 PERCENT DISCREPANCY =           0.00     PERCENT DISCREPANCY =           0.00






          TIME SUMMARY AT END OF TIME STEP  32 IN STRESS PERIOD    2
                    SECONDS     MINUTES      HOURS       DAYS        YEARS
                    -----------------------------------------------------------
   TIME STEP LENGTH  86400.      1440.0      24.000      1.0000     2.73785E-03
 STRESS PERIOD TIME 2.76480E+06  46080.      768.00      32.000     8.76112E-02
         TOTAL TIME 2.85120E+06  47520.      792.00      33.000     9.03491E-02
1
 
 SOLVING FOR HEAD 

 OUTPUT CONTROL FOR STRESS PERIOD    2   TIME STEP  33
    SAVE HEAD FOR ALL LAYERS
    SAVE DRAWDOWN FOR ALL LAYERS
    SAVE BUDGET
    PRINT HEAD FOR ALL LAYERS
    PRINT BUDGET
 UBDSV1 SAVING "         STORAGE" ON UNIT  53 AT TIME STEP 33, STRESS PERIOD   2
 UBDSV2 SAVING "   CONSTANT HEAD" ON UNIT  53 AT TIME STEP 33, STRESS PERIOD   2
 UBDSV1 SAVING "FLOW RIGHT FACE " ON UNIT  53 AT TIME STEP 33, STRESS PERIOD   2
 UBDSV1 SAVING "FLOW FRONT FACE " ON UNIT  53 AT TIME STEP 33, STRESS PERIOD   2
1
              HEAD IN LAYER   1 AT END OF TIME STEP  33 IN STRESS PERIOD    2
  ---------------------------------------------------------------------------

            1           2           3           4           5           6           7           8           9          10
 ........................................................................................................................
   1    9.990       8.965       7.921       6.859       5.776       4.672       3.545       2.394       1.217      1.2194E-02
   2    9.990       8.965       7.921       6.859       5.776       4.672       3.545       2.394       1.217      1.2194E-02
   3    9.990       8.965       7.921       6.859       5.776       4.672       3.545       2.394       1.217      1.2194E-02
   4    9.990       8.965       7.921       6.859       5.776       4.672       3.545       2.394       1.217      1.2194E-02
   5    9.990       8.965       7.921       6.859       5.776       4.672       3.545       2.394       1.217      1.2194E-02
   6    9.990       8.965       7.921       6.859       5.776       4.672       3.545       2.394       1.217      1.2194E-02
   7    9.990       8.965       7.921       6.859       5.776       4.672       3.545       2.394       1.217      1.2194E-02
   8    9.990       8.965       7.921       6.859       5.776       4.672       3.545       2.394       1.217      1.2194E-02
   9    9.990       8.965       7.921       6.859       5.776       4.672       3.545       2.394       1.217      1.2194E-02
  10    9.990       8.965       7.921       6.859       5.776       4.672       3.545       2.394       1.217      1.2194E-02

 HEAD WILL BE SAVED ON UNIT   51 AT END OF TIME STEP  33, STRESS PERIOD    2

 DRAWDOWN WILL BE SAVED ON UNIT   52 AT END OF TIME STEP  33, STRESS PERIOD    2
1
  VOLUMETRIC BUDGET FOR ENTIRE MODEL AT END OF TIME STEP 33 IN STRESS PERIOD   2
  ------------------------------------------------------------------------------

     CUMULATIVE VOLUMES      L**3       RATES FOR THIS TIME STEP      L**3/T
     ------------------                 ------------------------

           IN:                                      IN:
           ---                                      ---
             STORAGE =       9.7656E-03               STORAGE =           0.0000
       CONSTANT HEAD =           0.0000         CONSTANT HEAD =           0.0000
               WELLS =           0.0000                 WELLS =           0.0000
     HEAD DEP BOUNDS =       20730.2812       HEAD DEP BOUNDS =         609.7147

            TOTAL IN =       20730.2910              TOTAL IN =         609.7147

          OUT:                                     OUT:
          ----                                     ----
             STORAGE =           0.1772               STORAGE =       5.3978E-03
       CONSTANT HEAD =           0.0000         CONSTANT HEAD =           0.0000
               WELLS =           0.0000                 WELLS =           0.0000
     HEAD DEP BOUNDS =       20729.4258       HEAD DEP BOUNDS =         609.6888

           TOTAL OUT =       20729.6035             TOTAL OUT =         609.6942

            IN - OUT =           0.6875              IN - OUT =       2.0447E-02

 PERCENT DISCREPANCY =           0.00     PERCENT DISCREPANCY =           0.00






          TIME SUMMARY AT END OF TIME STEP  33 IN STRESS PERIOD    2
                    SECONDS     MINUTES      HOURS       DAYS        YEARS
                    -----------------------------------------------------------
   TIME STEP LENGTH  86400.      1440.0      24.000      1.0000     2.73785E-03
 STRESS PERIOD TIME 2.85120E+06  47520.      792.00      33.000     9.03491E-02
         TOTAL TIME 2.93760E+06  48960.      816.00      34.000     9.30869E-02
1
 
 SOLVING FOR HEAD 

 OUTPUT CONTROL FOR STRESS PERIOD    2   TIME STEP  34
    SAVE HEAD FOR ALL LAYERS
    SAVE DRAWDOWN FOR ALL LAYERS
    SAVE BUDGET
    PRINT HEAD FOR ALL LAYERS
    PRINT BUDGET
 UBDSV1 SAVING "         STORAGE" ON UNIT  53 AT TIME STEP 34, STRESS PERIOD   2
 UBDSV2 SAVING "   CONSTANT HEAD" ON UNIT  53 AT TIME STEP 34, STRESS PERIOD   2
 UBDSV1 SAVING "FLOW RIGHT FACE " ON UNIT  53 AT TIME STEP 34, STRESS PERIOD   2
 UBDSV1 SAVING "FLOW FRONT FACE " ON UNIT  53 AT TIME STEP 34, STRESS PERIOD   2
1
              HEAD IN LAYER   1 AT END OF TIME STEP  34 IN STRESS PERIOD    2
  ---------------------------------------------------------------------------

            1           2           3           4           5           6           7           8           9          10
 ........................................................................................................................
   1    9.990       8.965       7.921       6.859       5.776       4.672       3.545       2.394       1.217      1.2194E-02
   2    9.990       8.965       7.921       6.859       5.776       4.672       3.545       2.394       1.217      1.2194E-02
   3    9.990       8.965       7.921       6.859       5.776       4.672       3.545       2.394       1.217      1.2194E-02
   4    9.990       8.965       7.921       6.859       5.776       4.672       3.545       2.394       1.217      1.2194E-02
   5    9.990       8.965       7.921       6.859       5.776       4.672       3.545       2.394       1.217      1.2194E-02
   6    9.990       8.965       7.921       6.859       5.776       4.672       3.545       2.394       1.217      1.2194E-02
   7    9.990       8.965       7.921       6.859       5.776       4.672       3.545       2.394       1.217      1.2194E-02
   8    9.990       8.965       7.921       6.859       5.776       4.672       3.545       2.394       1.217      1.2194E-02
   9    9.990       8.965       7.921       6.859       5.776       4.672       3.545       2.394       1.217      1.2194E-02
  10    9.990       8.965       7.921       6.859       5.776       4.672       3.545       2.394       1.217      1.2194E-02

 HEAD WILL BE SAVED ON UNIT   51 AT END OF TIME STEP  34, STRESS PERIOD    2

 DRAWDOWN WILL BE SAVED ON UNIT   52 AT END OF TIME STEP  34, STRESS PERIOD    2
1
  VOLUMETRIC BUDGET FOR ENTIRE MODEL AT END OF TIME STEP 34 IN STRESS PERIOD   2
  ------------------------------------------------------------------------------

     CUMULATIVE VOLUMES      L**3       RATES FOR THIS TIME STEP      L**3/T
     ------------------                 ------------------------

           IN:                                      IN:
           ---                                      ---
             STORAGE =       9.7656E-03               STORAGE =           0.0000
       CONSTANT HEAD =           0.0000         CONSTANT HEAD =           0.0000
               WELLS =           0.0000                 WELLS =           0.0000
     HEAD DEP BOUNDS =       21339.9961       HEAD DEP BOUNDS =         609.7147

            TOTAL IN =       21340.0059              TOTAL IN =         609.7147

          OUT:                                     OUT:
          ----                                     ----
             STORAGE =           0.1825               STORAGE =       5.3978E-03
       CONSTANT HEAD =           0.0000         CONSTANT HEAD =           0.0000
               WELLS =           0.0000                 WELLS =           0.0000
     HEAD DEP BOUNDS =       21339.1152       HEAD DEP BOUNDS =         609.6888

           TOTAL OUT =       21339.2969             TOTAL OUT =         609.6942

            IN - OUT =           0.7090              IN - OUT =       2.0447E-02

 PERCENT DISCREPANCY =           0.00     PERCENT DISCREPANCY =           0.00






          TIME SUMMARY AT END OF TIME STEP  34 IN STRESS PERIOD    2
                    SECONDS     MINUTES      HOURS       DAYS        YEARS
                    -----------------------------------------------------------
   TIME STEP LENGTH  86400.      1440.0      24.000      1.0000     2.73785E-03
 STRESS PERIOD TIME 2.93760E+06  48960.      816.00      34.000     9.30869E-02
         TOTAL TIME 3.02400E+06  50400.      840.00      35.000     9.58248E-02
1
 
 SOLVING FOR HEAD 

 OUTPUT CONTROL FOR STRESS PERIOD    2   TIME STEP  35
    SAVE HEAD FOR ALL LAYERS
    SAVE DRAWDOWN FOR ALL LAYERS
    SAVE BUDGET
    PRINT HEAD FOR ALL LAYERS
    PRINT BUDGET
 UBDSV1 SAVING "         STORAGE" ON UNIT  53 AT TIME STEP 35, STRESS PERIOD   2
 UBDSV2 SAVING "   CONSTANT HEAD" ON UNIT  53 AT TIME STEP 35, STRESS PERIOD   2
 UBDSV1 SAVING "FLOW RIGHT FACE " ON UNIT  53 AT TIME STEP 35, STRESS PERIOD   2
 UBDSV1 SAVING "FLOW FRONT FACE " ON UNIT  53 AT TIME STEP 35, STRESS PERIOD   2
1
              HEAD IN LAYER   1 AT END OF TIME STEP  35 IN STRESS PERIOD    2
  ---------------------------------------------------------------------------

            1           2           3           4           5           6           7           8           9          10
 ........................................................................................................................
   1    9.990       8.965       7.921       6.859       5.776       4.672       3.545       2.394       1.217      1.2194E-02
   2    9.990       8.965       7.921       6.859       5.776       4.672       3.545       2.394       1.217      1.2194E-02
   3    9.990       8.965       7.921       6.859       5.776       4.672       3.545       2.394       1.217      1.2194E-02
   4    9.990       8.965       7.921       6.859       5.776       4.672       3.545       2.394       1.217      1.2194E-02
   5    9.990       8.965       7.921       6.859       5.776       4.672       3.545       2.394       1.217      1.2194E-02
   6    9.990       8.965       7.921       6.859       5.776       4.672       3.545       2.394       1.217      1.2194E-02
   7    9.990       8.965       7.921       6.859       5.776       4.672       3.545       2.394       1.217      1.2194E-02
   8    9.990       8.965       7.921       6.859       5.776       4.672       3.545       2.394       1.217      1.2194E-02
   9    9.990       8.965       7.921       6.859       5.776       4.672       3.545       2.394       1.217      1.2194E-02
  10    9.990       8.965       7.921       6.859       5.776       4.672       3.545       2.394       1.217      1.2194E-02

 HEAD WILL BE SAVED ON UNIT   51 AT END OF TIME STEP  35, STRESS PERIOD    2

 DRAWDOWN WILL BE SAVED ON UNIT   52 AT END OF TIME STEP  35, STRESS PERIOD    2
1
  VOLUMETRIC BUDGET FOR ENTIRE MODEL AT END OF TIME STEP 35 IN STRESS PERIOD   2
  ------------------------------------------------------------------------------

     CUMULATIVE VOLUMES      L**3       RATES FOR THIS TIME STEP      L**3/T
     ------------------                 ------------------------

           IN:                                      IN:
           ---                                      ---
             STORAGE =       9.7656E-03               STORAGE =           0.0000
       CONSTANT HEAD =           0.0000         CONSTANT HEAD =           0.0000
               WELLS =           0.0000                 WELLS =           0.0000
     HEAD DEP BOUNDS =       21949.7109       HEAD DEP BOUNDS =         609.7147

            TOTAL IN =       21949.7207              TOTAL IN =         609.7147

          OUT:                                     OUT:
          ----                                     ----
             STORAGE =           0.1879               STORAGE =       5.3978E-03
       CONSTANT HEAD =           0.0000         CONSTANT HEAD =           0.0000
               WELLS =           0.0000                 WELLS =           0.0000
     HEAD DEP BOUNDS =       21948.8047       HEAD DEP BOUNDS =         609.6888

           TOTAL OUT =       21948.9922             TOTAL OUT =         609.6942

            IN - OUT =           0.7285              IN - OUT =       2.0447E-02

 PERCENT DISCREPANCY =           0.00     PERCENT DISCREPANCY =           0.00






          TIME SUMMARY AT END OF TIME STEP  35 IN STRESS PERIOD    2
                    SECONDS     MINUTES      HOURS       DAYS        YEARS
                    -----------------------------------------------------------
   TIME STEP LENGTH  86400.      1440.0      24.000      1.0000     2.73785E-03
 STRESS PERIOD TIME 3.02400E+06  50400.      840.00      35.000     9.58248E-02
         TOTAL TIME 3.11040E+06  51840.      864.00      36.000     9.85626E-02
1
 
 SOLVING FOR HEAD 

 OUTPUT CONTROL FOR STRESS PERIOD    2   TIME STEP  36
    SAVE HEAD FOR ALL LAYERS
    SAVE DRAWDOWN FOR ALL LAYERS
    SAVE BUDGET
    PRINT HEAD FOR ALL LAYERS
    PRINT BUDGET
 UBDSV1 SAVING "         STORAGE" ON UNIT  53 AT TIME STEP 36, STRESS PERIOD   2
 UBDSV2 SAVING "   CONSTANT HEAD" ON UNIT  53 AT TIME STEP 36, STRESS PERIOD   2
 UBDSV1 SAVING "FLOW RIGHT FACE " ON UNIT  53 AT TIME STEP 36, STRESS PERIOD   2
 UBDSV1 SAVING "FLOW FRONT FACE " ON UNIT  53 AT TIME STEP 36, STRESS PERIOD   2
1
              HEAD IN LAYER   1 AT END OF TIME STEP  36 IN STRESS PERIOD    2
  ---------------------------------------------------------------------------

            1           2           3           4           5           6           7           8           9          10
 ........................................................................................................................
   1    9.990       8.965       7.921       6.859       5.776       4.672       3.545       2.394       1.217      1.2194E-02
   2    9.990       8.965       7.921       6.859       5.776       4.672       3.545       2.394       1.217      1.2194E-02
   3    9.990       8.965       7.921       6.859       5.776       4.672       3.545       2.394       1.217      1.2194E-02
   4    9.990       8.965       7.921       6.859       5.776       4.672       3.545       2.394       1.217      1.2194E-02
   5    9.990       8.965       7.921       6.859       5.776       4.672       3.545       2.394       1.217      1.2194E-02
   6    9.990       8.965       7.921       6.859       5.776       4.672       3.545       2.394       1.217      1.2194E-02
   7    9.990       8.965       7.921       6.859       5.776       4.672       3.545       2.394       1.217      1.2194E-02
   8    9.990       8.965       7.921       6.859       5.776       4.672       3.545       2.394       1.217      1.2194E-02
   9    9.990       8.965       7.921       6.859       5.776       4.672       3.545       2.394       1.217      1.2194E-02
  10    9.990       8.965       7.921       6.859       5.776       4.672       3.545       2.394       1.217      1.2194E-02

 HEAD WILL BE SAVED ON UNIT   51 AT END OF TIME STEP  36, STRESS PERIOD    2

 DRAWDOWN WILL BE SAVED ON UNIT   52 AT END OF TIME STEP  36, STRESS PERIOD    2
1
  VOLUMETRIC BUDGET FOR ENTIRE MODEL AT END OF TIME STEP 36 IN STRESS PERIOD   2
  ------------------------------------------------------------------------------

     CUMULATIVE VOLUMES      L**3       RATES FOR THIS TIME STEP      L**3/T
     ------------------                 ------------------------

           IN:                                      IN:
           ---                                      ---
             STORAGE =       9.7656E-03               STORAGE =           0.0000
       CONSTANT HEAD =           0.0000         CONSTANT HEAD =           0.0000
               WELLS =           0.0000                 WELLS =           0.0000
     HEAD DEP BOUNDS =       22559.4258       HEAD DEP BOUNDS =         609.7147

            TOTAL IN =       22559.4355              TOTAL IN =         609.7147

          OUT:                                     OUT:
          ----                                     ----
             STORAGE =           0.1933               STORAGE =       5.3978E-03
       CONSTANT HEAD =           0.0000         CONSTANT HEAD =           0.0000
               WELLS =           0.0000                 WELLS =           0.0000
     HEAD DEP BOUNDS =       22558.4941       HEAD DEP BOUNDS =         609.6888

           TOTAL OUT =       22558.6875             TOTAL OUT =         609.6942

            IN - OUT =           0.7480              IN - OUT =       2.0447E-02

 PERCENT DISCREPANCY =           0.00     PERCENT DISCREPANCY =           0.00






          TIME SUMMARY AT END OF TIME STEP  36 IN STRESS PERIOD    2
                    SECONDS     MINUTES      HOURS       DAYS        YEARS
                    -----------------------------------------------------------
   TIME STEP LENGTH  86400.      1440.0      24.000      1.0000     2.73785E-03
 STRESS PERIOD TIME 3.11040E+06  51840.      864.00      36.000     9.85626E-02
         TOTAL TIME 3.19680E+06  53280.      888.00      37.000     0.10130    
1
 
 SOLVING FOR HEAD 

 OUTPUT CONTROL FOR STRESS PERIOD    2   TIME STEP  37
    SAVE HEAD FOR ALL LAYERS
    SAVE DRAWDOWN FOR ALL LAYERS
    SAVE BUDGET
    PRINT HEAD FOR ALL LAYERS
    PRINT BUDGET
 UBDSV1 SAVING "         STORAGE" ON UNIT  53 AT TIME STEP 37, STRESS PERIOD   2
 UBDSV2 SAVING "   CONSTANT HEAD" ON UNIT  53 AT TIME STEP 37, STRESS PERIOD   2
 UBDSV1 SAVING "FLOW RIGHT FACE " ON UNIT  53 AT TIME STEP 37, STRESS PERIOD   2
 UBDSV1 SAVING "FLOW FRONT FACE " ON UNIT  53 AT TIME STEP 37, STRESS PERIOD   2
1
              HEAD IN LAYER   1 AT END OF TIME STEP  37 IN STRESS PERIOD    2
  ---------------------------------------------------------------------------

            1           2           3           4           5           6           7           8           9          10
 ........................................................................................................................
   1    9.990       8.965       7.921       6.859       5.776       4.672       3.545       2.394       1.217      1.2194E-02
   2    9.990       8.965       7.921       6.859       5.776       4.672       3.545       2.394       1.217      1.2194E-02
   3    9.990       8.965       7.921       6.859       5.776       4.672       3.545       2.394       1.217      1.2194E-02
   4    9.990       8.965       7.921       6.859       5.776       4.672       3.545       2.394       1.217      1.2194E-02
   5    9.990       8.965       7.921       6.859       5.776       4.672       3.545       2.394       1.217      1.2194E-02
   6    9.990       8.965       7.921       6.859       5.776       4.672       3.545       2.394       1.217      1.2194E-02
   7    9.990       8.965       7.921       6.859       5.776       4.672       3.545       2.394       1.217      1.2194E-02
   8    9.990       8.965       7.921       6.859       5.776       4.672       3.545       2.394       1.217      1.2194E-02
   9    9.990       8.965       7.921       6.859       5.776       4.672       3.545       2.394       1.217      1.2194E-02
  10    9.990       8.965       7.921       6.859       5.776       4.672       3.545       2.394       1.217      1.2194E-02

 HEAD WILL BE SAVED ON UNIT   51 AT END OF TIME STEP  37, STRESS PERIOD    2

 DRAWDOWN WILL BE SAVED ON UNIT   52 AT END OF TIME STEP  37, STRESS PERIOD    2
1
  VOLUMETRIC BUDGET FOR ENTIRE MODEL AT END OF TIME STEP 37 IN STRESS PERIOD   2
  ------------------------------------------------------------------------------

     CUMULATIVE VOLUMES      L**3       RATES FOR THIS TIME STEP      L**3/T
     ------------------                 ------------------------

           IN:                                      IN:
           ---                                      ---
             STORAGE =       9.7656E-03               STORAGE =           0.0000
       CONSTANT HEAD =           0.0000         CONSTANT HEAD =           0.0000
               WELLS =           0.0000                 WELLS =           0.0000
     HEAD DEP BOUNDS =       23169.1406       HEAD DEP BOUNDS =         609.7147

            TOTAL IN =       23169.1504              TOTAL IN =         609.7147

          OUT:                                     OUT:
          ----                                     ----
             STORAGE =           0.1987               STORAGE =       5.3978E-03
       CONSTANT HEAD =           0.0000         CONSTANT HEAD =           0.0000
               WELLS =           0.0000                 WELLS =           0.0000
     HEAD DEP BOUNDS =       23168.1836       HEAD DEP BOUNDS =         609.6888

           TOTAL OUT =       23168.3828             TOTAL OUT =         609.6942

            IN - OUT =           0.7676              IN - OUT =       2.0447E-02

 PERCENT DISCREPANCY =           0.00     PERCENT DISCREPANCY =           0.00






          TIME SUMMARY AT END OF TIME STEP  37 IN STRESS PERIOD    2
                    SECONDS     MINUTES      HOURS       DAYS        YEARS
                    -----------------------------------------------------------
   TIME STEP LENGTH  86400.      1440.0      24.000      1.0000     2.73785E-03
 STRESS PERIOD TIME 3.19680E+06  53280.      888.00      37.000     0.10130    
         TOTAL TIME 3.28320E+06  54720.      912.00      38.000     0.10404    
1
 
 SOLVING FOR HEAD 

 OUTPUT CONTROL FOR STRESS PERIOD    2   TIME STEP  38
    SAVE HEAD FOR ALL LAYERS
    SAVE DRAWDOWN FOR ALL LAYERS
    SAVE BUDGET
    PRINT HEAD FOR ALL LAYERS
    PRINT BUDGET
 UBDSV1 SAVING "         STORAGE" ON UNIT  53 AT TIME STEP 38, STRESS PERIOD   2
 UBDSV2 SAVING "   CONSTANT HEAD" ON UNIT  53 AT TIME STEP 38, STRESS PERIOD   2
 UBDSV1 SAVING "FLOW RIGHT FACE " ON UNIT  53 AT TIME STEP 38, STRESS PERIOD   2
 UBDSV1 SAVING "FLOW FRONT FACE " ON UNIT  53 AT TIME STEP 38, STRESS PERIOD   2
1
              HEAD IN LAYER   1 AT END OF TIME STEP  38 IN STRESS PERIOD    2
  ---------------------------------------------------------------------------

            1           2           3           4           5           6           7           8           9          10
 ........................................................................................................................
   1    9.990       8.965       7.921       6.859       5.776       4.672       3.545       2.394       1.217      1.2194E-02
   2    9.990       8.965       7.921       6.859       5.776       4.672       3.545       2.394       1.217      1.2194E-02
   3    9.990       8.965       7.921       6.859       5.776       4.672       3.545       2.394       1.217      1.2194E-02
   4    9.990       8.965       7.921       6.859       5.776       4.672       3.545       2.394       1.217      1.2194E-02
   5    9.990       8.965       7.921       6.859       5.776       4.672       3.545       2.394       1.217      1.2194E-02
   6    9.990       8.965       7.921       6.859       5.776       4.672       3.545       2.394       1.217      1.2194E-02
   7    9.990       8.965       7.921       6.859       5.776       4.672       3.545       2.394       1.217      1.2194E-02
   8    9.990       8.965       7.921       6.859       5.776       4.672       3.545       2.394       1.217      1.2194E-02
   9    9.990       8.965       7.921       6.859       5.776       4.672       3.545       2.394       1.217      1.2194E-02
  10    9.990       8.965       7.921       6.859       5.776       4.672       3.545       2.394       1.217      1.2194E-02

 HEAD WILL BE SAVED ON UNIT   51 AT END OF TIME STEP  38, STRESS PERIOD    2

 DRAWDOWN WILL BE SAVED ON UNIT   52 AT END OF TIME STEP  38, STRESS PERIOD    2
1
  VOLUMETRIC BUDGET FOR ENTIRE MODEL AT END OF TIME STEP 38 IN STRESS PERIOD   2
  ------------------------------------------------------------------------------

     CUMULATIVE VOLUMES      L**3       RATES FOR THIS TIME STEP      L**3/T
     ------------------                 ------------------------

           IN:                                      IN:
           ---                                      ---
             STORAGE =       9.7656E-03               STORAGE =           0.0000
       CONSTANT HEAD =           0.0000         CONSTANT HEAD =           0.0000
               WELLS =           0.0000                 WELLS =           0.0000
     HEAD DEP BOUNDS =       23778.8555       HEAD DEP BOUNDS =         609.7147

            TOTAL IN =       23778.8652              TOTAL IN =         609.7147

          OUT:                                     OUT:
          ----                                     ----
             STORAGE =           0.2041               STORAGE =       5.3978E-03
       CONSTANT HEAD =           0.0000         CONSTANT HEAD =           0.0000
               WELLS =           0.0000                 WELLS =           0.0000
     HEAD DEP BOUNDS =       23777.8730       HEAD DEP BOUNDS =         609.6888

           TOTAL OUT =       23778.0781             TOTAL OUT =         609.6942

            IN - OUT =           0.7871              IN - OUT =       2.0447E-02

 PERCENT DISCREPANCY =           0.00     PERCENT DISCREPANCY =           0.00






          TIME SUMMARY AT END OF TIME STEP  38 IN STRESS PERIOD    2
                    SECONDS     MINUTES      HOURS       DAYS        YEARS
                    -----------------------------------------------------------
   TIME STEP LENGTH  86400.      1440.0      24.000      1.0000     2.73785E-03
 STRESS PERIOD TIME 3.28320E+06  54720.      912.00      38.000     0.10404    
         TOTAL TIME 3.36960E+06  56160.      936.00      39.000     0.10678    
1
 
 SOLVING FOR HEAD 

 OUTPUT CONTROL FOR STRESS PERIOD    2   TIME STEP  39
    SAVE HEAD FOR ALL LAYERS
    SAVE DRAWDOWN FOR ALL LAYERS
    SAVE BUDGET
    PRINT HEAD FOR ALL LAYERS
    PRINT BUDGET
 UBDSV1 SAVING "         STORAGE" ON UNIT  53 AT TIME STEP 39, STRESS PERIOD   2
 UBDSV2 SAVING "   CONSTANT HEAD" ON UNIT  53 AT TIME STEP 39, STRESS PERIOD   2
 UBDSV1 SAVING "FLOW RIGHT FACE " ON UNIT  53 AT TIME STEP 39, STRESS PERIOD   2
 UBDSV1 SAVING "FLOW FRONT FACE " ON UNIT  53 AT TIME STEP 39, STRESS PERIOD   2
1
              HEAD IN LAYER   1 AT END OF TIME STEP  39 IN STRESS PERIOD    2
  ---------------------------------------------------------------------------

            1           2           3           4           5           6           7           8           9          10
 ........................................................................................................................
   1    9.990       8.965       7.921       6.859       5.776       4.672       3.545       2.394       1.217      1.2194E-02
   2    9.990       8.965       7.921       6.859       5.776       4.672       3.545       2.394       1.217      1.2194E-02
   3    9.990       8.965       7.921       6.859       5.776       4.672       3.545       2.394       1.217      1.2194E-02
   4    9.990       8.965       7.921       6.859       5.776       4.672       3.545       2.394       1.217      1.2194E-02
   5    9.990       8.965       7.921       6.859       5.776       4.672       3.545       2.394       1.217      1.2194E-02
   6    9.990       8.965       7.921       6.859       5.776       4.672       3.545       2.394       1.217      1.2194E-02
   7    9.990       8.965       7.921       6.859       5.776       4.672       3.545       2.394       1.217      1.2194E-02
   8    9.990       8.965       7.921       6.859       5.776       4.672       3.545       2.394       1.217      1.2194E-02
   9    9.990       8.965       7.921       6.859       5.776       4.672       3.545       2.394       1.217      1.2194E-02
  10    9.990       8.965       7.921       6.859       5.776       4.672       3.545       2.394       1.217      1.2194E-02

 HEAD WILL BE SAVED ON UNIT   51 AT END OF TIME STEP  39, STRESS PERIOD    2

 DRAWDOWN WILL BE SAVED ON UNIT   52 AT END OF TIME STEP  39, STRESS PERIOD    2
1
  VOLUMETRIC BUDGET FOR ENTIRE MODEL AT END OF TIME STEP 39 IN STRESS PERIOD   2
  ------------------------------------------------------------------------------

     CUMULATIVE VOLUMES      L**3       RATES FOR THIS TIME STEP      L**3/T
     ------------------                 ------------------------

           IN:                                      IN:
           ---                                      ---
             STORAGE =       9.7656E-03               STORAGE =           0.0000
       CONSTANT HEAD =           0.0000         CONSTANT HEAD =           0.0000
               WELLS =           0.0000                 WELLS =           0.0000
     HEAD DEP BOUNDS =       24388.5703       HEAD DEP BOUNDS =         609.7147

            TOTAL IN =       24388.5801              TOTAL IN =         609.7147

          OUT:                                     OUT:
          ----                                     ----
             STORAGE =           0.2095               STORAGE =       5.3978E-03
       CONSTANT HEAD =           0.0000         CONSTANT HEAD =           0.0000
               WELLS =           0.0000                 WELLS =           0.0000
     HEAD DEP BOUNDS =       24387.5625       HEAD DEP BOUNDS =         609.6888

           TOTAL OUT =       24387.7715             TOTAL OUT =         609.6942

            IN - OUT =           0.8086              IN - OUT =       2.0447E-02

 PERCENT DISCREPANCY =           0.00     PERCENT DISCREPANCY =           0.00






          TIME SUMMARY AT END OF TIME STEP  39 IN STRESS PERIOD    2
                    SECONDS     MINUTES      HOURS       DAYS        YEARS
                    -----------------------------------------------------------
   TIME STEP LENGTH  86400.      1440.0      24.000      1.0000     2.73785E-03
 STRESS PERIOD TIME 3.36960E+06  56160.      936.00      39.000     0.10678    
         TOTAL TIME 3.45600E+06  57600.      960.00      40.000     0.10951    
1
 
 SOLVING FOR HEAD 

 OUTPUT CONTROL FOR STRESS PERIOD    2   TIME STEP  40
    SAVE HEAD FOR ALL LAYERS
    SAVE DRAWDOWN FOR ALL LAYERS
    SAVE BUDGET
    PRINT HEAD FOR ALL LAYERS
    PRINT BUDGET
 UBDSV1 SAVING "         STORAGE" ON UNIT  53 AT TIME STEP 40, STRESS PERIOD   2
 UBDSV2 SAVING "   CONSTANT HEAD" ON UNIT  53 AT TIME STEP 40, STRESS PERIOD   2
 UBDSV1 SAVING "FLOW RIGHT FACE " ON UNIT  53 AT TIME STEP 40, STRESS PERIOD   2
 UBDSV1 SAVING "FLOW FRONT FACE " ON UNIT  53 AT TIME STEP 40, STRESS PERIOD   2
1
              HEAD IN LAYER   1 AT END OF TIME STEP  40 IN STRESS PERIOD    2
  ---------------------------------------------------------------------------

            1           2           3           4           5           6           7           8           9          10
 ........................................................................................................................
   1    9.990       8.965       7.921       6.859       5.776       4.672       3.545       2.394       1.217      1.2194E-02
   2    9.990       8.965       7.921       6.859       5.776       4.672       3.545       2.394       1.217      1.2194E-02
   3    9.990       8.965       7.921       6.859       5.776       4.672       3.545       2.394       1.217      1.2194E-02
   4    9.990       8.965       7.921       6.859       5.776       4.672       3.545       2.394       1.217      1.2194E-02
   5    9.990       8.965       7.921       6.859       5.776       4.672       3.545       2.394       1.217      1.2194E-02
   6    9.990       8.965       7.921       6.859       5.776       4.672       3.545       2.394       1.217      1.2194E-02
   7    9.990       8.965       7.921       6.859       5.776       4.672       3.545       2.394       1.217      1.2194E-02
   8    9.990       8.965       7.921       6.859       5.776       4.672       3.545       2.394       1.217      1.2194E-02
   9    9.990       8.965       7.921       6.859       5.776       4.672       3.545       2.394       1.217      1.2194E-02
  10    9.990       8.965       7.921       6.859       5.776       4.672       3.545       2.394       1.217      1.2194E-02

 HEAD WILL BE SAVED ON UNIT   51 AT END OF TIME STEP  40, STRESS PERIOD    2

 DRAWDOWN WILL BE SAVED ON UNIT   52 AT END OF TIME STEP  40, STRESS PERIOD    2
1
  VOLUMETRIC BUDGET FOR ENTIRE MODEL AT END OF TIME STEP 40 IN STRESS PERIOD   2
  ------------------------------------------------------------------------------

     CUMULATIVE VOLUMES      L**3       RATES FOR THIS TIME STEP      L**3/T
     ------------------                 ------------------------

           IN:                                      IN:
           ---                                      ---
             STORAGE =       9.7656E-03               STORAGE =           0.0000
       CONSTANT HEAD =           0.0000         CONSTANT HEAD =           0.0000
               WELLS =           0.0000                 WELLS =           0.0000
     HEAD DEP BOUNDS =       24998.2852       HEAD DEP BOUNDS =         609.7147

            TOTAL IN =       24998.2949              TOTAL IN =         609.7147

          OUT:                                     OUT:
          ----                                     ----
             STORAGE =           0.2149               STORAGE =       5.3978E-03
       CONSTANT HEAD =           0.0000         CONSTANT HEAD =           0.0000
               WELLS =           0.0000                 WELLS =           0.0000
     HEAD DEP BOUNDS =       24997.2520       HEAD DEP BOUNDS =         609.6888

           TOTAL OUT =       24997.4668             TOTAL OUT =         609.6942

            IN - OUT =           0.8281              IN - OUT =       2.0447E-02

 PERCENT DISCREPANCY =           0.00     PERCENT DISCREPANCY =           0.00






          TIME SUMMARY AT END OF TIME STEP  40 IN STRESS PERIOD    2
                    SECONDS     MINUTES      HOURS       DAYS        YEARS
                    -----------------------------------------------------------
   TIME STEP LENGTH  86400.      1440.0      24.000      1.0000     2.73785E-03
 STRESS PERIOD TIME 3.45600E+06  57600.      960.00      40.000     0.10951    
         TOTAL TIME 3.54240E+06  59040.      984.00      41.000     0.11225    
1
 
 SOLVING FOR HEAD 

 OUTPUT CONTROL FOR STRESS PERIOD    2   TIME STEP  41
    SAVE HEAD FOR ALL LAYERS
    SAVE DRAWDOWN FOR ALL LAYERS
    SAVE BUDGET
    PRINT HEAD FOR ALL LAYERS
    PRINT BUDGET
 UBDSV1 SAVING "         STORAGE" ON UNIT  53 AT TIME STEP 41, STRESS PERIOD   2
 UBDSV2 SAVING "   CONSTANT HEAD" ON UNIT  53 AT TIME STEP 41, STRESS PERIOD   2
 UBDSV1 SAVING "FLOW RIGHT FACE " ON UNIT  53 AT TIME STEP 41, STRESS PERIOD   2
 UBDSV1 SAVING "FLOW FRONT FACE " ON UNIT  53 AT TIME STEP 41, STRESS PERIOD   2
1
              HEAD IN LAYER   1 AT END OF TIME STEP  41 IN STRESS PERIOD    2
  ---------------------------------------------------------------------------

            1           2           3           4           5           6           7           8           9          10
 ........................................................................................................................
   1    9.990       8.965       7.921       6.859       5.776       4.672       3.545       2.394       1.217      1.2194E-02
   2    9.990       8.965       7.921       6.859       5.776       4.672       3.545       2.394       1.217      1.2194E-02
   3    9.990       8.965       7.921       6.859       5.776       4.672       3.545       2.394       1.217      1.2194E-02
   4    9.990       8.965       7.921       6.859       5.776       4.672       3.545       2.394       1.217      1.2194E-02
   5    9.990       8.965       7.921       6.859       5.776       4.672       3.545       2.394       1.217      1.2194E-02
   6    9.990       8.965       7.921       6.859       5.776       4.672       3.545       2.394       1.217      1.2194E-02
   7    9.990       8.965       7.921       6.859       5.776       4.672       3.545       2.394       1.217      1.2194E-02
   8    9.990       8.965       7.921       6.859       5.776       4.672       3.545       2.394       1.217      1.2194E-02
   9    9.990       8.965       7.921       6.859       5.776       4.672       3.545       2.394       1.217      1.2194E-02
  10    9.990       8.965       7.921       6.859       5.776       4.672       3.545       2.394       1.217      1.2194E-02

 HEAD WILL BE SAVED ON UNIT   51 AT END OF TIME STEP  41, STRESS PERIOD    2

 DRAWDOWN WILL BE SAVED ON UNIT   52 AT END OF TIME STEP  41, STRESS PERIOD    2
1
  VOLUMETRIC BUDGET FOR ENTIRE MODEL AT END OF TIME STEP 41 IN STRESS PERIOD   2
  ------------------------------------------------------------------------------

     CUMULATIVE VOLUMES      L**3       RATES FOR THIS TIME STEP      L**3/T
     ------------------                 ------------------------

           IN:                                      IN:
           ---                                      ---
             STORAGE =       9.7656E-03               STORAGE =           0.0000
       CONSTANT HEAD =           0.0000         CONSTANT HEAD =           0.0000
               WELLS =           0.0000                 WELLS =           0.0000
     HEAD DEP BOUNDS =       25608.0000       HEAD DEP BOUNDS =         609.7147

            TOTAL IN =       25608.0098              TOTAL IN =         609.7147

          OUT:                                     OUT:
          ----                                     ----
             STORAGE =           0.2203               STORAGE =       5.3978E-03
       CONSTANT HEAD =           0.0000         CONSTANT HEAD =           0.0000
               WELLS =           0.0000                 WELLS =           0.0000
     HEAD DEP BOUNDS =       25606.9414       HEAD DEP BOUNDS =         609.6888

           TOTAL OUT =       25607.1621             TOTAL OUT =         609.6942

            IN - OUT =           0.8477              IN - OUT =       2.0447E-02

 PERCENT DISCREPANCY =           0.00     PERCENT DISCREPANCY =           0.00






          TIME SUMMARY AT END OF TIME STEP  41 IN STRESS PERIOD    2
                    SECONDS     MINUTES      HOURS       DAYS        YEARS
                    -----------------------------------------------------------
   TIME STEP LENGTH  86400.      1440.0      24.000      1.0000     2.73785E-03
 STRESS PERIOD TIME 3.54240E+06  59040.      984.00      41.000     0.11225    
         TOTAL TIME 3.62880E+06  60480.      1008.0      42.000     0.11499    
1
 
 SOLVING FOR HEAD 

 OUTPUT CONTROL FOR STRESS PERIOD    2   TIME STEP  42
    SAVE HEAD FOR ALL LAYERS
    SAVE DRAWDOWN FOR ALL LAYERS
    SAVE BUDGET
    PRINT HEAD FOR ALL LAYERS
    PRINT BUDGET
 UBDSV1 SAVING "         STORAGE" ON UNIT  53 AT TIME STEP 42, STRESS PERIOD   2
 UBDSV2 SAVING "   CONSTANT HEAD" ON UNIT  53 AT TIME STEP 42, STRESS PERIOD   2
 UBDSV1 SAVING "FLOW RIGHT FACE " ON UNIT  53 AT TIME STEP 42, STRESS PERIOD   2
 UBDSV1 SAVING "FLOW FRONT FACE " ON UNIT  53 AT TIME STEP 42, STRESS PERIOD   2
1
              HEAD IN LAYER   1 AT END OF TIME STEP  42 IN STRESS PERIOD    2
  ---------------------------------------------------------------------------

            1           2           3           4           5           6           7           8           9          10
 ........................................................................................................................
   1    9.990       8.965       7.921       6.859       5.776       4.672       3.545       2.394       1.217      1.2194E-02
   2    9.990       8.965       7.921       6.859       5.776       4.672       3.545       2.394       1.217      1.2194E-02
   3    9.990       8.965       7.921       6.859       5.776       4.672       3.545       2.394       1.217      1.2194E-02
   4    9.990       8.965       7.921       6.859       5.776       4.672       3.545       2.394       1.217      1.2194E-02
   5    9.990       8.965       7.921       6.859       5.776       4.672       3.545       2.394       1.217      1.2194E-02
   6    9.990       8.965       7.921       6.859       5.776       4.672       3.545       2.394       1.217      1.2194E-02
   7    9.990       8.965       7.921       6.859       5.776       4.672       3.545       2.394       1.217      1.2194E-02
   8    9.990       8.965       7.921       6.859       5.776       4.672       3.545       2.394       1.217      1.2194E-02
   9    9.990       8.965       7.921       6.859       5.776       4.672       3.545       2.394       1.217      1.2194E-02
  10    9.990       8.965       7.921       6.859       5.776       4.672       3.545       2.394       1.217      1.2194E-02

 HEAD WILL BE SAVED ON UNIT   51 AT END OF TIME STEP  42, STRESS PERIOD    2

 DRAWDOWN WILL BE SAVED ON UNIT   52 AT END OF TIME STEP  42, STRESS PERIOD    2
1
  VOLUMETRIC BUDGET FOR ENTIRE MODEL AT END OF TIME STEP 42 IN STRESS PERIOD   2
  ------------------------------------------------------------------------------

     CUMULATIVE VOLUMES      L**3       RATES FOR THIS TIME STEP      L**3/T
     ------------------                 ------------------------

           IN:                                      IN:
           ---                                      ---
             STORAGE =       9.7656E-03               STORAGE =           0.0000
       CONSTANT HEAD =           0.0000         CONSTANT HEAD =           0.0000
               WELLS =           0.0000                 WELLS =           0.0000
     HEAD DEP BOUNDS =       26217.7148       HEAD DEP BOUNDS =         609.7147

            TOTAL IN =       26217.7246              TOTAL IN =         609.7147

          OUT:                                     OUT:
          ----                                     ----
             STORAGE =           0.2257               STORAGE =       5.3978E-03
       CONSTANT HEAD =           0.0000         CONSTANT HEAD =           0.0000
               WELLS =           0.0000                 WELLS =           0.0000
     HEAD DEP BOUNDS =       26216.6309       HEAD DEP BOUNDS =         609.6888

           TOTAL OUT =       26216.8574             TOTAL OUT =         609.6942

            IN - OUT =           0.8672              IN - OUT =       2.0447E-02

 PERCENT DISCREPANCY =           0.00     PERCENT DISCREPANCY =           0.00






          TIME SUMMARY AT END OF TIME STEP  42 IN STRESS PERIOD    2
                    SECONDS     MINUTES      HOURS       DAYS        YEARS
                    -----------------------------------------------------------
   TIME STEP LENGTH  86400.      1440.0      24.000      1.0000     2.73785E-03
 STRESS PERIOD TIME 3.62880E+06  60480.      1008.0      42.000     0.11499    
         TOTAL TIME 3.71520E+06  61920.      1032.0      43.000     0.11773    
1
 
 SOLVING FOR HEAD 

 OUTPUT CONTROL FOR STRESS PERIOD    2   TIME STEP  43
    SAVE HEAD FOR ALL LAYERS
    SAVE DRAWDOWN FOR ALL LAYERS
    SAVE BUDGET
    PRINT HEAD FOR ALL LAYERS
    PRINT BUDGET
 UBDSV1 SAVING "         STORAGE" ON UNIT  53 AT TIME STEP 43, STRESS PERIOD   2
 UBDSV2 SAVING "   CONSTANT HEAD" ON UNIT  53 AT TIME STEP 43, STRESS PERIOD   2
 UBDSV1 SAVING "FLOW RIGHT FACE " ON UNIT  53 AT TIME STEP 43, STRESS PERIOD   2
 UBDSV1 SAVING "FLOW FRONT FACE " ON UNIT  53 AT TIME STEP 43, STRESS PERIOD   2
1
              HEAD IN LAYER   1 AT END OF TIME STEP  43 IN STRESS PERIOD    2
  ---------------------------------------------------------------------------

            1           2           3           4           5           6           7           8           9          10
 ........................................................................................................................
   1    9.990       8.965       7.921       6.859       5.776       4.672       3.545       2.394       1.217      1.2194E-02
   2    9.990       8.965       7.921       6.859       5.776       4.672       3.545       2.394       1.217      1.2194E-02
   3    9.990       8.965       7.921       6.859       5.776       4.672       3.545       2.394       1.217      1.2194E-02
   4    9.990       8.965       7.921       6.859       5.776       4.672       3.545       2.394       1.217      1.2194E-02
   5    9.990       8.965       7.921       6.859       5.776       4.672       3.545       2.394       1.217      1.2194E-02
   6    9.990       8.965       7.921       6.859       5.776       4.672       3.545       2.394       1.217      1.2194E-02
   7    9.990       8.965       7.921       6.859       5.776       4.672       3.545       2.394       1.217      1.2194E-02
   8    9.990       8.965       7.921       6.859       5.776       4.672       3.545       2.394       1.217      1.2194E-02
   9    9.990       8.965       7.921       6.859       5.776       4.672       3.545       2.394       1.217      1.2194E-02
  10    9.990       8.965       7.921       6.859       5.776       4.672       3.545       2.394       1.217      1.2194E-02

 HEAD WILL BE SAVED ON UNIT   51 AT END OF TIME STEP  43, STRESS PERIOD    2

 DRAWDOWN WILL BE SAVED ON UNIT   52 AT END OF TIME STEP  43, STRESS PERIOD    2
1
  VOLUMETRIC BUDGET FOR ENTIRE MODEL AT END OF TIME STEP 43 IN STRESS PERIOD   2
  ------------------------------------------------------------------------------

     CUMULATIVE VOLUMES      L**3       RATES FOR THIS TIME STEP      L**3/T
     ------------------                 ------------------------

           IN:                                      IN:
           ---                                      ---
             STORAGE =       9.7656E-03               STORAGE =           0.0000
       CONSTANT HEAD =           0.0000         CONSTANT HEAD =           0.0000
               WELLS =           0.0000                 WELLS =           0.0000
     HEAD DEP BOUNDS =       26827.4297       HEAD DEP BOUNDS =         609.7147

            TOTAL IN =       26827.4395              TOTAL IN =         609.7147

          OUT:                                     OUT:
          ----                                     ----
             STORAGE =           0.2311               STORAGE =       5.3978E-03
       CONSTANT HEAD =           0.0000         CONSTANT HEAD =           0.0000
               WELLS =           0.0000                 WELLS =           0.0000
     HEAD DEP BOUNDS =       26826.3203       HEAD DEP BOUNDS =         609.6888

           TOTAL OUT =       26826.5508             TOTAL OUT =         609.6942

            IN - OUT =           0.8887              IN - OUT =       2.0447E-02

 PERCENT DISCREPANCY =           0.00     PERCENT DISCREPANCY =           0.00






          TIME SUMMARY AT END OF TIME STEP  43 IN STRESS PERIOD    2
                    SECONDS     MINUTES      HOURS       DAYS        YEARS
                    -----------------------------------------------------------
   TIME STEP LENGTH  86400.      1440.0      24.000      1.0000     2.73785E-03
 STRESS PERIOD TIME 3.71520E+06  61920.      1032.0      43.000     0.11773    
         TOTAL TIME 3.80160E+06  63360.      1056.0      44.000     0.12047    
1
 
 SOLVING FOR HEAD 

 OUTPUT CONTROL FOR STRESS PERIOD    2   TIME STEP  44
    SAVE HEAD FOR ALL LAYERS
    SAVE DRAWDOWN FOR ALL LAYERS
    SAVE BUDGET
    PRINT HEAD FOR ALL LAYERS
    PRINT BUDGET
 UBDSV1 SAVING "         STORAGE" ON UNIT  53 AT TIME STEP 44, STRESS PERIOD   2
 UBDSV2 SAVING "   CONSTANT HEAD" ON UNIT  53 AT TIME STEP 44, STRESS PERIOD   2
 UBDSV1 SAVING "FLOW RIGHT FACE " ON UNIT  53 AT TIME STEP 44, STRESS PERIOD   2
 UBDSV1 SAVING "FLOW FRONT FACE " ON UNIT  53 AT TIME STEP 44, STRESS PERIOD   2
1
              HEAD IN LAYER   1 AT END OF TIME STEP  44 IN STRESS PERIOD    2
  ---------------------------------------------------------------------------

            1           2           3           4           5           6           7           8           9          10
 ........................................................................................................................
   1    9.990       8.965       7.921       6.859       5.776       4.672       3.545       2.394       1.217      1.2194E-02
   2    9.990       8.965       7.921       6.859       5.776       4.672       3.545       2.394       1.217      1.2194E-02
   3    9.990       8.965       7.921       6.859       5.776       4.672       3.545       2.394       1.217      1.2194E-02
   4    9.990       8.965       7.921       6.859       5.776       4.672       3.545       2.394       1.217      1.2194E-02
   5    9.990       8.965       7.921       6.859       5.776       4.672       3.545       2.394       1.217      1.2194E-02
   6    9.990       8.965       7.921       6.859       5.776       4.672       3.545       2.394       1.217      1.2194E-02
   7    9.990       8.965       7.921       6.859       5.776       4.672       3.545       2.394       1.217      1.2194E-02
   8    9.990       8.965       7.921       6.859       5.776       4.672       3.545       2.394       1.217      1.2194E-02
   9    9.990       8.965       7.921       6.859       5.776       4.672       3.545       2.394       1.217      1.2194E-02
  10    9.990       8.965       7.921       6.859       5.776       4.672       3.545       2.394       1.217      1.2194E-02

 HEAD WILL BE SAVED ON UNIT   51 AT END OF TIME STEP  44, STRESS PERIOD    2

 DRAWDOWN WILL BE SAVED ON UNIT   52 AT END OF TIME STEP  44, STRESS PERIOD    2
1
  VOLUMETRIC BUDGET FOR ENTIRE MODEL AT END OF TIME STEP 44 IN STRESS PERIOD   2
  ------------------------------------------------------------------------------

     CUMULATIVE VOLUMES      L**3       RATES FOR THIS TIME STEP      L**3/T
     ------------------                 ------------------------

           IN:                                      IN:
           ---                                      ---
             STORAGE =       9.7656E-03               STORAGE =           0.0000
       CONSTANT HEAD =           0.0000         CONSTANT HEAD =           0.0000
               WELLS =           0.0000                 WELLS =           0.0000
     HEAD DEP BOUNDS =       27437.1445       HEAD DEP BOUNDS =         609.7147

            TOTAL IN =       27437.1543              TOTAL IN =         609.7147

          OUT:                                     OUT:
          ----                                     ----
             STORAGE =           0.2365               STORAGE =       5.3978E-03
       CONSTANT HEAD =           0.0000         CONSTANT HEAD =           0.0000
               WELLS =           0.0000                 WELLS =           0.0000
     HEAD DEP BOUNDS =       27436.0098       HEAD DEP BOUNDS =         609.6888

           TOTAL OUT =       27436.2461             TOTAL OUT =         609.6942

            IN - OUT =           0.9082              IN - OUT =       2.0447E-02

 PERCENT DISCREPANCY =           0.00     PERCENT DISCREPANCY =           0.00






          TIME SUMMARY AT END OF TIME STEP  44 IN STRESS PERIOD    2
                    SECONDS     MINUTES      HOURS       DAYS        YEARS
                    -----------------------------------------------------------
   TIME STEP LENGTH  86400.      1440.0      24.000      1.0000     2.73785E-03
 STRESS PERIOD TIME 3.80160E+06  63360.      1056.0      44.000     0.12047    
         TOTAL TIME 3.88800E+06  64800.      1080.0      45.000     0.12320    
1
 
 SOLVING FOR HEAD 

 OUTPUT CONTROL FOR STRESS PERIOD    2   TIME STEP  45
    SAVE HEAD FOR ALL LAYERS
    SAVE DRAWDOWN FOR ALL LAYERS
    SAVE BUDGET
    PRINT HEAD FOR ALL LAYERS
    PRINT BUDGET
 UBDSV1 SAVING "         STORAGE" ON UNIT  53 AT TIME STEP 45, STRESS PERIOD   2
 UBDSV2 SAVING "   CONSTANT HEAD" ON UNIT  53 AT TIME STEP 45, STRESS PERIOD   2
 UBDSV1 SAVING "FLOW RIGHT FACE " ON UNIT  53 AT TIME STEP 45, STRESS PERIOD   2
 UBDSV1 SAVING "FLOW FRONT FACE " ON UNIT  53 AT TIME STEP 45, STRESS PERIOD   2
1
              HEAD IN LAYER   1 AT END OF TIME STEP  45 IN STRESS PERIOD    2
  ---------------------------------------------------------------------------

            1           2           3           4           5           6           7           8           9          10
 ........................................................................................................................
   1    9.990       8.965       7.921       6.859       5.776       4.672       3.545       2.394       1.217      1.2194E-02
   2    9.990       8.965       7.921       6.859       5.776       4.672       3.545       2.394       1.217      1.2194E-02
   3    9.990       8.965       7.921       6.859       5.776       4.672       3.545       2.394       1.217      1.2194E-02
   4    9.990       8.965       7.921       6.859       5.776       4.672       3.545       2.394       1.217      1.2194E-02
   5    9.990       8.965       7.921       6.859       5.776       4.672       3.545       2.394       1.217      1.2194E-02
   6    9.990       8.965       7.921       6.859       5.776       4.672       3.545       2.394       1.217      1.2194E-02
   7    9.990       8.965       7.921       6.859       5.776       4.672       3.545       2.394       1.217      1.2194E-02
   8    9.990       8.965       7.921       6.859       5.776       4.672       3.545       2.394       1.217      1.2194E-02
   9    9.990       8.965       7.921       6.859       5.776       4.672       3.545       2.394       1.217      1.2194E-02
  10    9.990       8.965       7.921       6.859       5.776       4.672       3.545       2.394       1.217      1.2194E-02

 HEAD WILL BE SAVED ON UNIT   51 AT END OF TIME STEP  45, STRESS PERIOD    2

 DRAWDOWN WILL BE SAVED ON UNIT   52 AT END OF TIME STEP  45, STRESS PERIOD    2
1
  VOLUMETRIC BUDGET FOR ENTIRE MODEL AT END OF TIME STEP 45 IN STRESS PERIOD   2
  ------------------------------------------------------------------------------

     CUMULATIVE VOLUMES      L**3       RATES FOR THIS TIME STEP      L**3/T
     ------------------                 ------------------------

           IN:                                      IN:
           ---                                      ---
             STORAGE =       9.7656E-03               STORAGE =           0.0000
       CONSTANT HEAD =           0.0000         CONSTANT HEAD =           0.0000
               WELLS =           0.0000                 WELLS =           0.0000
     HEAD DEP BOUNDS =       28046.8594       HEAD DEP BOUNDS =         609.7147

            TOTAL IN =       28046.8691              TOTAL IN =         609.7147

          OUT:                                     OUT:
          ----                                     ----
             STORAGE =           0.2419               STORAGE =       5.3978E-03
       CONSTANT HEAD =           0.0000         CONSTANT HEAD =           0.0000
               WELLS =           0.0000                 WELLS =           0.0000
     HEAD DEP BOUNDS =       28045.6992       HEAD DEP BOUNDS =         609.6888

           TOTAL OUT =       28045.9414             TOTAL OUT =         609.6942

            IN - OUT =           0.9277              IN - OUT =       2.0447E-02

 PERCENT DISCREPANCY =           0.00     PERCENT DISCREPANCY =           0.00






          TIME SUMMARY AT END OF TIME STEP  45 IN STRESS PERIOD    2
                    SECONDS     MINUTES      HOURS       DAYS        YEARS
                    -----------------------------------------------------------
   TIME STEP LENGTH  86400.      1440.0      24.000      1.0000     2.73785E-03
 STRESS PERIOD TIME 3.88800E+06  64800.      1080.0      45.000     0.12320    
         TOTAL TIME 3.97440E+06  66240.      1104.0      46.000     0.12594    
1
 
 SOLVING FOR HEAD 

 OUTPUT CONTROL FOR STRESS PERIOD    2   TIME STEP  46
    SAVE HEAD FOR ALL LAYERS
    SAVE DRAWDOWN FOR ALL LAYERS
    SAVE BUDGET
    PRINT HEAD FOR ALL LAYERS
    PRINT BUDGET
 UBDSV1 SAVING "         STORAGE" ON UNIT  53 AT TIME STEP 46, STRESS PERIOD   2
 UBDSV2 SAVING "   CONSTANT HEAD" ON UNIT  53 AT TIME STEP 46, STRESS PERIOD   2
 UBDSV1 SAVING "FLOW RIGHT FACE " ON UNIT  53 AT TIME STEP 46, STRESS PERIOD   2
 UBDSV1 SAVING "FLOW FRONT FACE " ON UNIT  53 AT TIME STEP 46, STRESS PERIOD   2
1
              HEAD IN LAYER   1 AT END OF TIME STEP  46 IN STRESS PERIOD    2
  ---------------------------------------------------------------------------

            1           2           3           4           5           6           7           8           9          10
 ........................................................................................................................
   1    9.990       8.965       7.921       6.859       5.776       4.672       3.545       2.394       1.217      1.2194E-02
   2    9.990       8.965       7.921       6.859       5.776       4.672       3.545       2.394       1.217      1.2194E-02
   3    9.990       8.965       7.921       6.859       5.776       4.672       3.545       2.394       1.217      1.2194E-02
   4    9.990       8.965       7.921       6.859       5.776       4.672       3.545       2.394       1.217      1.2194E-02
   5    9.990       8.965       7.921       6.859       5.776       4.672       3.545       2.394       1.217      1.2194E-02
   6    9.990       8.965       7.921       6.859       5.776       4.672       3.545       2.394       1.217      1.2194E-02
   7    9.990       8.965       7.921       6.859       5.776       4.672       3.545       2.394       1.217      1.2194E-02
   8    9.990       8.965       7.921       6.859       5.776       4.672       3.545       2.394       1.217      1.2194E-02
   9    9.990       8.965       7.921       6.859       5.776       4.672       3.545       2.394       1.217      1.2194E-02
  10    9.990       8.965       7.921       6.859       5.776       4.672       3.545       2.394       1.217      1.2194E-02

 HEAD WILL BE SAVED ON UNIT   51 AT END OF TIME STEP  46, STRESS PERIOD    2

 DRAWDOWN WILL BE SAVED ON UNIT   52 AT END OF TIME STEP  46, STRESS PERIOD    2
1
  VOLUMETRIC BUDGET FOR ENTIRE MODEL AT END OF TIME STEP 46 IN STRESS PERIOD   2
  ------------------------------------------------------------------------------

     CUMULATIVE VOLUMES      L**3       RATES FOR THIS TIME STEP      L**3/T
     ------------------                 ------------------------

           IN:                                      IN:
           ---                                      ---
             STORAGE =       9.7656E-03               STORAGE =           0.0000
       CONSTANT HEAD =           0.0000         CONSTANT HEAD =           0.0000
               WELLS =           0.0000                 WELLS =           0.0000
     HEAD DEP BOUNDS =       28656.5742       HEAD DEP BOUNDS =         609.7147

            TOTAL IN =       28656.5840              TOTAL IN =         609.7147

          OUT:                                     OUT:
          ----                                     ----
             STORAGE =           0.2473               STORAGE =       5.3978E-03
       CONSTANT HEAD =           0.0000         CONSTANT HEAD =           0.0000
               WELLS =           0.0000                 WELLS =           0.0000
     HEAD DEP BOUNDS =       28655.3887       HEAD DEP BOUNDS =         609.6888

           TOTAL OUT =       28655.6367             TOTAL OUT =         609.6942

            IN - OUT =           0.9473              IN - OUT =       2.0447E-02

 PERCENT DISCREPANCY =           0.00     PERCENT DISCREPANCY =           0.00






          TIME SUMMARY AT END OF TIME STEP  46 IN STRESS PERIOD    2
                    SECONDS     MINUTES      HOURS       DAYS        YEARS
                    -----------------------------------------------------------
   TIME STEP LENGTH  86400.      1440.0      24.000      1.0000     2.73785E-03
 STRESS PERIOD TIME 3.97440E+06  66240.      1104.0      46.000     0.12594    
         TOTAL TIME 4.06080E+06  67680.      1128.0      47.000     0.12868    
1
 
 SOLVING FOR HEAD 

 OUTPUT CONTROL FOR STRESS PERIOD    2   TIME STEP  47
    SAVE HEAD FOR ALL LAYERS
    SAVE DRAWDOWN FOR ALL LAYERS
    SAVE BUDGET
    PRINT HEAD FOR ALL LAYERS
    PRINT BUDGET
 UBDSV1 SAVING "         STORAGE" ON UNIT  53 AT TIME STEP 47, STRESS PERIOD   2
 UBDSV2 SAVING "   CONSTANT HEAD" ON UNIT  53 AT TIME STEP 47, STRESS PERIOD   2
 UBDSV1 SAVING "FLOW RIGHT FACE " ON UNIT  53 AT TIME STEP 47, STRESS PERIOD   2
 UBDSV1 SAVING "FLOW FRONT FACE " ON UNIT  53 AT TIME STEP 47, STRESS PERIOD   2
1
              HEAD IN LAYER   1 AT END OF TIME STEP  47 IN STRESS PERIOD    2
  ---------------------------------------------------------------------------

            1           2           3           4           5           6           7           8           9          10
 ........................................................................................................................
   1    9.990       8.965       7.921       6.859       5.776       4.672       3.545       2.394       1.217      1.2194E-02
   2    9.990       8.965       7.921       6.859       5.776       4.672       3.545       2.394       1.217      1.2194E-02
   3    9.990       8.965       7.921       6.859       5.776       4.672       3.545       2.394       1.217      1.2194E-02
   4    9.990       8.965       7.921       6.859       5.776       4.672       3.545       2.394       1.217      1.2194E-02
   5    9.990       8.965       7.921       6.859       5.776       4.672       3.545       2.394       1.217      1.2194E-02
   6    9.990       8.965       7.921       6.859       5.776       4.672       3.545       2.394       1.217      1.2194E-02
   7    9.990       8.965       7.921       6.859       5.776       4.672       3.545       2.394       1.217      1.2194E-02
   8    9.990       8.965       7.921       6.859       5.776       4.672       3.545       2.394       1.217      1.2194E-02
   9    9.990       8.965       7.921       6.859       5.776       4.672       3.545       2.394       1.217      1.2194E-02
  10    9.990       8.965       7.921       6.859       5.776       4.672       3.545       2.394       1.217      1.2194E-02

 HEAD WILL BE SAVED ON UNIT   51 AT END OF TIME STEP  47, STRESS PERIOD    2

 DRAWDOWN WILL BE SAVED ON UNIT   52 AT END OF TIME STEP  47, STRESS PERIOD    2
1
  VOLUMETRIC BUDGET FOR ENTIRE MODEL AT END OF TIME STEP 47 IN STRESS PERIOD   2
  ------------------------------------------------------------------------------

     CUMULATIVE VOLUMES      L**3       RATES FOR THIS TIME STEP      L**3/T
     ------------------                 ------------------------

           IN:                                      IN:
           ---                                      ---
             STORAGE =       9.7656E-03               STORAGE =           0.0000
       CONSTANT HEAD =           0.0000         CONSTANT HEAD =           0.0000
               WELLS =           0.0000                 WELLS =           0.0000
     HEAD DEP BOUNDS =       29266.2891       HEAD DEP BOUNDS =         609.7147

            TOTAL IN =       29266.2988              TOTAL IN =         609.7147

          OUT:                                     OUT:
          ----                                     ----
             STORAGE =           0.2527               STORAGE =       5.3978E-03
       CONSTANT HEAD =           0.0000         CONSTANT HEAD =           0.0000
               WELLS =           0.0000                 WELLS =           0.0000
     HEAD DEP BOUNDS =       29265.0781       HEAD DEP BOUNDS =         609.6888

           TOTAL OUT =       29265.3301             TOTAL OUT =         609.6942

            IN - OUT =           0.9688              IN - OUT =       2.0447E-02

 PERCENT DISCREPANCY =           0.00     PERCENT DISCREPANCY =           0.00






          TIME SUMMARY AT END OF TIME STEP  47 IN STRESS PERIOD    2
                    SECONDS     MINUTES      HOURS       DAYS        YEARS
                    -----------------------------------------------------------
   TIME STEP LENGTH  86400.      1440.0      24.000      1.0000     2.73785E-03
 STRESS PERIOD TIME 4.06080E+06  67680.      1128.0      47.000     0.12868    
         TOTAL TIME 4.14720E+06  69120.      1152.0      48.000     0.13142    
1
 
 SOLVING FOR HEAD 

 OUTPUT CONTROL FOR STRESS PERIOD    2   TIME STEP  48
    SAVE HEAD FOR ALL LAYERS
    SAVE DRAWDOWN FOR ALL LAYERS
    SAVE BUDGET
    PRINT HEAD FOR ALL LAYERS
    PRINT BUDGET
 UBDSV1 SAVING "         STORAGE" ON UNIT  53 AT TIME STEP 48, STRESS PERIOD   2
 UBDSV2 SAVING "   CONSTANT HEAD" ON UNIT  53 AT TIME STEP 48, STRESS PERIOD   2
 UBDSV1 SAVING "FLOW RIGHT FACE " ON UNIT  53 AT TIME STEP 48, STRESS PERIOD   2
 UBDSV1 SAVING "FLOW FRONT FACE " ON UNIT  53 AT TIME STEP 48, STRESS PERIOD   2
1
              HEAD IN LAYER   1 AT END OF TIME STEP  48 IN STRESS PERIOD    2
  ---------------------------------------------------------------------------

            1           2           3           4           5           6           7           8           9          10
 ........................................................................................................................
   1    9.990       8.965       7.921       6.859       5.776       4.672       3.545       2.394       1.217      1.2194E-02
   2    9.990       8.965       7.921       6.859       5.776       4.672       3.545       2.394       1.217      1.2194E-02
   3    9.990       8.965       7.921       6.859       5.776       4.672       3.545       2.394       1.217      1.2194E-02
   4    9.990       8.965       7.921       6.859       5.776       4.672       3.545       2.394       1.217      1.2194E-02
   5    9.990       8.965       7.921       6.859       5.776       4.672       3.545       2.394       1.217      1.2194E-02
   6    9.990       8.965       7.921       6.859       5.776       4.672       3.545       2.394       1.217      1.2194E-02
   7    9.990       8.965       7.921       6.859       5.776       4.672       3.545       2.394       1.217      1.2194E-02
   8    9.990       8.965       7.921       6.859       5.776       4.672       3.545       2.394       1.217      1.2194E-02
   9    9.990       8.965       7.921       6.859       5.776       4.672       3.545       2.394       1.217      1.2194E-02
  10    9.990       8.965       7.921       6.859       5.776       4.672       3.545       2.394       1.217      1.2194E-02

 HEAD WILL BE SAVED ON UNIT   51 AT END OF TIME STEP  48, STRESS PERIOD    2

 DRAWDOWN WILL BE SAVED ON UNIT   52 AT END OF TIME STEP  48, STRESS PERIOD    2
1
  VOLUMETRIC BUDGET FOR ENTIRE MODEL AT END OF TIME STEP 48 IN STRESS PERIOD   2
  ------------------------------------------------------------------------------

     CUMULATIVE VOLUMES      L**3       RATES FOR THIS TIME STEP      L**3/T
     ------------------                 ------------------------

           IN:                                      IN:
           ---                                      ---
             STORAGE =       9.7656E-03               STORAGE =           0.0000
       CONSTANT HEAD =           0.0000         CONSTANT HEAD =           0.0000
               WELLS =           0.0000                 WELLS =           0.0000
     HEAD DEP BOUNDS =       29876.0039       HEAD DEP BOUNDS =         609.7147

            TOTAL IN =       29876.0137              TOTAL IN =         609.7147

          OUT:                                     OUT:
          ----                                     ----
             STORAGE =           0.2581               STORAGE =       5.3978E-03
       CONSTANT HEAD =           0.0000         CONSTANT HEAD =           0.0000
               WELLS =           0.0000                 WELLS =           0.0000
     HEAD DEP BOUNDS =       29874.7676       HEAD DEP BOUNDS =         609.6888

           TOTAL OUT =       29875.0254             TOTAL OUT =         609.6942

            IN - OUT =           0.9883              IN - OUT =       2.0447E-02

 PERCENT DISCREPANCY =           0.00     PERCENT DISCREPANCY =           0.00






          TIME SUMMARY AT END OF TIME STEP  48 IN STRESS PERIOD    2
                    SECONDS     MINUTES      HOURS       DAYS        YEARS
                    -----------------------------------------------------------
   TIME STEP LENGTH  86400.      1440.0      24.000      1.0000     2.73785E-03
 STRESS PERIOD TIME 4.14720E+06  69120.      1152.0      48.000     0.13142    
         TOTAL TIME 4.23360E+06  70560.      1176.0      49.000     0.13415    
1
 
 SOLVING FOR HEAD 

 OUTPUT CONTROL FOR STRESS PERIOD    2   TIME STEP  49
    SAVE HEAD FOR ALL LAYERS
    SAVE DRAWDOWN FOR ALL LAYERS
    SAVE BUDGET
    PRINT HEAD FOR ALL LAYERS
    PRINT BUDGET
 UBDSV1 SAVING "         STORAGE" ON UNIT  53 AT TIME STEP 49, STRESS PERIOD   2
 UBDSV2 SAVING "   CONSTANT HEAD" ON UNIT  53 AT TIME STEP 49, STRESS PERIOD   2
 UBDSV1 SAVING "FLOW RIGHT FACE " ON UNIT  53 AT TIME STEP 49, STRESS PERIOD   2
 UBDSV1 SAVING "FLOW FRONT FACE " ON UNIT  53 AT TIME STEP 49, STRESS PERIOD   2
1
              HEAD IN LAYER   1 AT END OF TIME STEP  49 IN STRESS PERIOD    2
  ---------------------------------------------------------------------------

            1           2           3           4           5           6           7           8           9          10
 ........................................................................................................................
   1    9.990       8.965       7.921       6.859       5.776       4.672       3.545       2.394       1.217      1.2194E-02
   2    9.990       8.965       7.921       6.859       5.776       4.672       3.545       2.394       1.217      1.2194E-02
   3    9.990       8.965       7.921       6.859       5.776       4.672       3.545       2.394       1.217      1.2194E-02
   4    9.990       8.965       7.921       6.859       5.776       4.672       3.545       2.394       1.217      1.2194E-02
   5    9.990       8.965       7.921       6.859       5.776       4.672       3.545       2.394       1.217      1.2194E-02
   6    9.990       8.965       7.921       6.859       5.776       4.672       3.545       2.394       1.217      1.2194E-02
   7    9.990       8.965       7.921       6.859       5.776       4.672       3.545       2.394       1.217      1.2194E-02
   8    9.990       8.965       7.921       6.859       5.776       4.672       3.545       2.394       1.217      1.2194E-02
   9    9.990       8.965       7.921       6.859       5.776       4.672       3.545       2.394       1.217      1.2194E-02
  10    9.990       8.965       7.921       6.859       5.776       4.672       3.545       2.394       1.217      1.2194E-02

 HEAD WILL BE SAVED ON UNIT   51 AT END OF TIME STEP  49, STRESS PERIOD    2

 DRAWDOWN WILL BE SAVED ON UNIT   52 AT END OF TIME STEP  49, STRESS PERIOD    2
1
  VOLUMETRIC BUDGET FOR ENTIRE MODEL AT END OF TIME STEP 49 IN STRESS PERIOD   2
  ------------------------------------------------------------------------------

     CUMULATIVE VOLUMES      L**3       RATES FOR THIS TIME STEP      L**3/T
     ------------------                 ------------------------

           IN:                                      IN:
           ---                                      ---
             STORAGE =       9.7656E-03               STORAGE =           0.0000
       CONSTANT HEAD =           0.0000         CONSTANT HEAD =           0.0000
               WELLS =           0.0000                 WELLS =           0.0000
     HEAD DEP BOUNDS =       30485.7188       HEAD DEP BOUNDS =         609.7147

            TOTAL IN =       30485.7285              TOTAL IN =         609.7147

          OUT:                                     OUT:
          ----                                     ----
             STORAGE =           0.2635               STORAGE =       5.3978E-03
       CONSTANT HEAD =           0.0000         CONSTANT HEAD =           0.0000
               WELLS =           0.0000                 WELLS =           0.0000
     HEAD DEP BOUNDS =       30484.4570       HEAD DEP BOUNDS =         609.6888

           TOTAL OUT =       30484.7207             TOTAL OUT =         609.6942

            IN - OUT =           1.0078              IN - OUT =       2.0447E-02

 PERCENT DISCREPANCY =           0.00     PERCENT DISCREPANCY =           0.00






          TIME SUMMARY AT END OF TIME STEP  49 IN STRESS PERIOD    2
                    SECONDS     MINUTES      HOURS       DAYS        YEARS
                    -----------------------------------------------------------
   TIME STEP LENGTH  86400.      1440.0      24.000      1.0000     2.73785E-03
 STRESS PERIOD TIME 4.23360E+06  70560.      1176.0      49.000     0.13415    
         TOTAL TIME 4.32000E+06  72000.      1200.0      50.000     0.13689    
1
 
 SOLVING FOR HEAD 

 OUTPUT CONTROL FOR STRESS PERIOD    2   TIME STEP  50
    SAVE HEAD FOR ALL LAYERS
    SAVE DRAWDOWN FOR ALL LAYERS
    SAVE BUDGET
    PRINT HEAD FOR ALL LAYERS
    PRINT BUDGET
 UBDSV1 SAVING "         STORAGE" ON UNIT  53 AT TIME STEP 50, STRESS PERIOD   2
 UBDSV2 SAVING "   CONSTANT HEAD" ON UNIT  53 AT TIME STEP 50, STRESS PERIOD   2
 UBDSV1 SAVING "FLOW RIGHT FACE " ON UNIT  53 AT TIME STEP 50, STRESS PERIOD   2
 UBDSV1 SAVING "FLOW FRONT FACE " ON UNIT  53 AT TIME STEP 50, STRESS PERIOD   2
1
              HEAD IN LAYER   1 AT END OF TIME STEP  50 IN STRESS PERIOD    2
  ---------------------------------------------------------------------------

            1           2           3           4           5           6           7           8           9          10
 ........................................................................................................................
   1    9.990       8.965       7.921       6.859       5.776       4.672       3.545       2.394       1.217      1.2194E-02
   2    9.990       8.965       7.921       6.859       5.776       4.672       3.545       2.394       1.217      1.2194E-02
   3    9.990       8.965       7.921       6.859       5.776       4.672       3.545       2.394       1.217      1.2194E-02
   4    9.990       8.965       7.921       6.859       5.776       4.672       3.545       2.394       1.217      1.2194E-02
   5    9.990       8.965       7.921       6.859       5.776       4.672       3.545       2.394       1.217      1.2194E-02
   6    9.990       8.965       7.921       6.859       5.776       4.672       3.545       2.394       1.217      1.2194E-02
   7    9.990       8.965       7.921       6.859       5.776       4.672       3.545       2.394       1.217      1.2194E-02
   8    9.990       8.965       7.921       6.859       5.776       4.672       3.545       2.394       1.217      1.2194E-02
   9    9.990       8.965       7.921       6.859       5.776       4.672       3.545       2.394       1.217      1.2194E-02
  10    9.990       8.965       7.921       6.859       5.776       4.672       3.545       2.394       1.217      1.2194E-02

 HEAD WILL BE SAVED ON UNIT   51 AT END OF TIME STEP  50, STRESS PERIOD    2

 DRAWDOWN WILL BE SAVED ON UNIT   52 AT END OF TIME STEP  50, STRESS PERIOD    2
1
  VOLUMETRIC BUDGET FOR ENTIRE MODEL AT END OF TIME STEP 50 IN STRESS PERIOD   2
  ------------------------------------------------------------------------------

     CUMULATIVE VOLUMES      L**3       RATES FOR THIS TIME STEP      L**3/T
     ------------------                 ------------------------

           IN:                                      IN:
           ---                                      ---
             STORAGE =       9.7656E-03               STORAGE =           0.0000
       CONSTANT HEAD =           0.0000         CONSTANT HEAD =           0.0000
               WELLS =           0.0000                 WELLS =           0.0000
     HEAD DEP BOUNDS =       31095.4336       HEAD DEP BOUNDS =         609.7147

            TOTAL IN =       31095.4434              TOTAL IN =         609.7147

          OUT:                                     OUT:
          ----                                     ----
             STORAGE =           0.2689               STORAGE =       5.3978E-03
       CONSTANT HEAD =           0.0000         CONSTANT HEAD =           0.0000
               WELLS =           0.0000                 WELLS =           0.0000
     HEAD DEP BOUNDS =       31094.1465       HEAD DEP BOUNDS =         609.6888

           TOTAL OUT =       31094.4160             TOTAL OUT =         609.6942

            IN - OUT =           1.0273              IN - OUT =       2.0447E-02

 PERCENT DISCREPANCY =           0.00     PERCENT DISCREPANCY =           0.00






          TIME SUMMARY AT END OF TIME STEP  50 IN STRESS PERIOD    2
                    SECONDS     MINUTES      HOURS       DAYS        YEARS
                    -----------------------------------------------------------
   TIME STEP LENGTH  86400.      1440.0      24.000      1.0000     2.73785E-03
 STRESS PERIOD TIME 4.32000E+06  72000.      1200.0      50.000     0.13689    
         TOTAL TIME 4.40640E+06  73440.      1224.0      51.000     0.13963    
1
 
 SOLVING FOR HEAD 

 OUTPUT CONTROL FOR STRESS PERIOD    2   TIME STEP  51
    SAVE HEAD FOR ALL LAYERS
    SAVE DRAWDOWN FOR ALL LAYERS
    SAVE BUDGET
    PRINT HEAD FOR ALL LAYERS
    PRINT BUDGET
 UBDSV1 SAVING "         STORAGE" ON UNIT  53 AT TIME STEP 51, STRESS PERIOD   2
 UBDSV2 SAVING "   CONSTANT HEAD" ON UNIT  53 AT TIME STEP 51, STRESS PERIOD   2
 UBDSV1 SAVING "FLOW RIGHT FACE " ON UNIT  53 AT TIME STEP 51, STRESS PERIOD   2
 UBDSV1 SAVING "FLOW FRONT FACE " ON UNIT  53 AT TIME STEP 51, STRESS PERIOD   2
1
              HEAD IN LAYER   1 AT END OF TIME STEP  51 IN STRESS PERIOD    2
  ---------------------------------------------------------------------------

            1           2           3           4           5           6           7           8           9          10
 ........................................................................................................................
   1    9.990       8.965       7.921       6.859       5.776       4.672       3.545       2.394       1.217      1.2194E-02
   2    9.990       8.965       7.921       6.859       5.776       4.672       3.545       2.394       1.217      1.2194E-02
   3    9.990       8.965       7.921       6.859       5.776       4.672       3.545       2.394       1.217      1.2194E-02
   4    9.990       8.965       7.921       6.859       5.776       4.672       3.545       2.394       1.217      1.2194E-02
   5    9.990       8.965       7.921       6.859       5.776       4.672       3.545       2.394       1.217      1.2194E-02
   6    9.990       8.965       7.921       6.859       5.776       4.672       3.545       2.394       1.217      1.2194E-02
   7    9.990       8.965       7.921       6.859       5.776       4.672       3.545       2.394       1.217      1.2194E-02
   8    9.990       8.965       7.921       6.859       5.776       4.672       3.545       2.394       1.217      1.2194E-02
   9    9.990       8.965       7.921       6.859       5.776       4.672       3.545       2.394       1.217      1.2194E-02
  10    9.990       8.965       7.921       6.859       5.776       4.672       3.545       2.394       1.217      1.2194E-02

 HEAD WILL BE SAVED ON UNIT   51 AT END OF TIME STEP  51, STRESS PERIOD    2

 DRAWDOWN WILL BE SAVED ON UNIT   52 AT END OF TIME STEP  51, STRESS PERIOD    2
1
  VOLUMETRIC BUDGET FOR ENTIRE MODEL AT END OF TIME STEP 51 IN STRESS PERIOD   2
  ------------------------------------------------------------------------------

     CUMULATIVE VOLUMES      L**3       RATES FOR THIS TIME STEP      L**3/T
     ------------------                 ------------------------

           IN:                                      IN:
           ---                                      ---
             STORAGE =       9.7656E-03               STORAGE =           0.0000
       CONSTANT HEAD =           0.0000         CONSTANT HEAD =           0.0000
               WELLS =           0.0000                 WELLS =           0.0000
     HEAD DEP BOUNDS =       31705.1484       HEAD DEP BOUNDS =         609.7147

            TOTAL IN =       31705.1582              TOTAL IN =         609.7147

          OUT:                                     OUT:
          ----                                     ----
             STORAGE =           0.2743               STORAGE =       5.3978E-03
       CONSTANT HEAD =           0.0000         CONSTANT HEAD =           0.0000
               WELLS =           0.0000                 WELLS =           0.0000
     HEAD DEP BOUNDS =       31703.8359       HEAD DEP BOUNDS =         609.6888

           TOTAL OUT =       31704.1094             TOTAL OUT =         609.6942

            IN - OUT =           1.0488              IN - OUT =       2.0447E-02

 PERCENT DISCREPANCY =           0.00     PERCENT DISCREPANCY =           0.00






          TIME SUMMARY AT END OF TIME STEP  51 IN STRESS PERIOD    2
                    SECONDS     MINUTES      HOURS       DAYS        YEARS
                    -----------------------------------------------------------
   TIME STEP LENGTH  86400.      1440.0      24.000      1.0000     2.73785E-03
 STRESS PERIOD TIME 4.40640E+06  73440.      1224.0      51.000     0.13963    
         TOTAL TIME 4.49280E+06  74880.      1248.0      52.000     0.14237    
1
 
 SOLVING FOR HEAD 

 OUTPUT CONTROL FOR STRESS PERIOD    2   TIME STEP  52
    SAVE HEAD FOR ALL LAYERS
    SAVE DRAWDOWN FOR ALL LAYERS
    SAVE BUDGET
    PRINT HEAD FOR ALL LAYERS
    PRINT BUDGET
 UBDSV1 SAVING "         STORAGE" ON UNIT  53 AT TIME STEP 52, STRESS PERIOD   2
 UBDSV2 SAVING "   CONSTANT HEAD" ON UNIT  53 AT TIME STEP 52, STRESS PERIOD   2
 UBDSV1 SAVING "FLOW RIGHT FACE " ON UNIT  53 AT TIME STEP 52, STRESS PERIOD   2
 UBDSV1 SAVING "FLOW FRONT FACE " ON UNIT  53 AT TIME STEP 52, STRESS PERIOD   2
1
              HEAD IN LAYER   1 AT END OF TIME STEP  52 IN STRESS PERIOD    2
  ---------------------------------------------------------------------------

            1           2           3           4           5           6           7           8           9          10
 ........................................................................................................................
   1    9.990       8.965       7.921       6.859       5.776       4.672       3.545       2.394       1.217      1.2194E-02
   2    9.990       8.965       7.921       6.859       5.776       4.672       3.545       2.394       1.217      1.2194E-02
   3    9.990       8.965       7.921       6.859       5.776       4.672       3.545       2.394       1.217      1.2194E-02
   4    9.990       8.965       7.921       6.859       5.776       4.672       3.545       2.394       1.217      1.2194E-02
   5    9.990       8.965       7.921       6.859       5.776       4.672       3.545       2.394       1.217      1.2194E-02
   6    9.990       8.965       7.921       6.859       5.776       4.672       3.545       2.394       1.217      1.2194E-02
   7    9.990       8.965       7.921       6.859       5.776       4.672       3.545       2.394       1.217      1.2194E-02
   8    9.990       8.965       7.921       6.859       5.776       4.672       3.545       2.394       1.217      1.2194E-02
   9    9.990       8.965       7.921       6.859       5.776       4.672       3.545       2.394       1.217      1.2194E-02
  10    9.990       8.965       7.921       6.859       5.776       4.672       3.545       2.394       1.217      1.2194E-02

 HEAD WILL BE SAVED ON UNIT   51 AT END OF TIME STEP  52, STRESS PERIOD    2

 DRAWDOWN WILL BE SAVED ON UNIT   52 AT END OF TIME STEP  52, STRESS PERIOD    2
1
  VOLUMETRIC BUDGET FOR ENTIRE MODEL AT END OF TIME STEP 52 IN STRESS PERIOD   2
  ------------------------------------------------------------------------------

     CUMULATIVE VOLUMES      L**3       RATES FOR THIS TIME STEP      L**3/T
     ------------------                 ------------------------

           IN:                                      IN:
           ---                                      ---
             STORAGE =       9.7656E-03               STORAGE =           0.0000
       CONSTANT HEAD =           0.0000         CONSTANT HEAD =           0.0000
               WELLS =           0.0000                 WELLS =           0.0000
     HEAD DEP BOUNDS =       32314.8633       HEAD DEP BOUNDS =         609.7147

            TOTAL IN =       32314.8730              TOTAL IN =         609.7147

          OUT:                                     OUT:
          ----                                     ----
             STORAGE =           0.2797               STORAGE =       5.3978E-03
       CONSTANT HEAD =           0.0000         CONSTANT HEAD =           0.0000
               WELLS =           0.0000                 WELLS =           0.0000
     HEAD DEP BOUNDS =       32313.5254       HEAD DEP BOUNDS =         609.6888

           TOTAL OUT =       32313.8047             TOTAL OUT =         609.6942

            IN - OUT =           1.0684              IN - OUT =       2.0447E-02

 PERCENT DISCREPANCY =           0.00     PERCENT DISCREPANCY =           0.00






          TIME SUMMARY AT END OF TIME STEP  52 IN STRESS PERIOD    2
                    SECONDS     MINUTES      HOURS       DAYS        YEARS
                    -----------------------------------------------------------
   TIME STEP LENGTH  86400.      1440.0      24.000      1.0000     2.73785E-03
 STRESS PERIOD TIME 4.49280E+06  74880.      1248.0      52.000     0.14237    
         TOTAL TIME 4.57920E+06  76320.      1272.0      53.000     0.14511    
1
 
 SOLVING FOR HEAD 

 OUTPUT CONTROL FOR STRESS PERIOD    2   TIME STEP  53
    SAVE HEAD FOR ALL LAYERS
    SAVE DRAWDOWN FOR ALL LAYERS
    SAVE BUDGET
    PRINT HEAD FOR ALL LAYERS
    PRINT BUDGET
 UBDSV1 SAVING "         STORAGE" ON UNIT  53 AT TIME STEP 53, STRESS PERIOD   2
 UBDSV2 SAVING "   CONSTANT HEAD" ON UNIT  53 AT TIME STEP 53, STRESS PERIOD   2
 UBDSV1 SAVING "FLOW RIGHT FACE " ON UNIT  53 AT TIME STEP 53, STRESS PERIOD   2
 UBDSV1 SAVING "FLOW FRONT FACE " ON UNIT  53 AT TIME STEP 53, STRESS PERIOD   2
1
              HEAD IN LAYER   1 AT END OF TIME STEP  53 IN STRESS PERIOD    2
  ---------------------------------------------------------------------------

            1           2           3           4           5           6           7           8           9          10
 ........................................................................................................................
   1    9.990       8.965       7.921       6.859       5.776       4.672       3.545       2.394       1.217      1.2194E-02
   2    9.990       8.965       7.921       6.859       5.776       4.672       3.545       2.394       1.217      1.2194E-02
   3    9.990       8.965       7.921       6.859       5.776       4.672       3.545       2.394       1.217      1.2194E-02
   4    9.990       8.965       7.921       6.859       5.776       4.672       3.545       2.394       1.217      1.2194E-02
   5    9.990       8.965       7.921       6.859       5.776       4.672       3.545       2.394       1.217      1.2194E-02
   6    9.990       8.965       7.921       6.859       5.776       4.672       3.545       2.394       1.217      1.2194E-02
   7    9.990       8.965       7.921       6.859       5.776       4.672       3.545       2.394       1.217      1.2194E-02
   8    9.990       8.965       7.921       6.859       5.776       4.672       3.545       2.394       1.217      1.2194E-02
   9    9.990       8.965       7.921       6.859       5.776       4.672       3.545       2.394       1.217      1.2194E-02
  10    9.990       8.965       7.921       6.859       5.776       4.672       3.545       2.394       1.217      1.2194E-02

 HEAD WILL BE SAVED ON UNIT   51 AT END OF TIME STEP  53, STRESS PERIOD    2

 DRAWDOWN WILL BE SAVED ON UNIT   52 AT END OF TIME STEP  53, STRESS PERIOD    2
1
  VOLUMETRIC BUDGET FOR ENTIRE MODEL AT END OF TIME STEP 53 IN STRESS PERIOD   2
  ------------------------------------------------------------------------------

     CUMULATIVE VOLUMES      L**3       RATES FOR THIS TIME STEP      L**3/T
     ------------------                 ------------------------

           IN:                                      IN:
           ---                                      ---
             STORAGE =       9.7656E-03               STORAGE =           0.0000
       CONSTANT HEAD =           0.0000         CONSTANT HEAD =           0.0000
               WELLS =           0.0000                 WELLS =           0.0000
     HEAD DEP BOUNDS =       32924.5781       HEAD DEP BOUNDS =         609.7147

            TOTAL IN =       32924.5859              TOTAL IN =         609.7147

          OUT:                                     OUT:
          ----                                     ----
             STORAGE =           0.2851               STORAGE =       5.3978E-03
       CONSTANT HEAD =           0.0000         CONSTANT HEAD =           0.0000
               WELLS =           0.0000                 WELLS =           0.0000
     HEAD DEP BOUNDS =       32923.2148       HEAD DEP BOUNDS =         609.6888

           TOTAL OUT =       32923.5000             TOTAL OUT =         609.6942

            IN - OUT =           1.0859              IN - OUT =       2.0447E-02

 PERCENT DISCREPANCY =           0.00     PERCENT DISCREPANCY =           0.00






          TIME SUMMARY AT END OF TIME STEP  53 IN STRESS PERIOD    2
                    SECONDS     MINUTES      HOURS       DAYS        YEARS
                    -----------------------------------------------------------
   TIME STEP LENGTH  86400.      1440.0      24.000      1.0000     2.73785E-03
 STRESS PERIOD TIME 4.57920E+06  76320.      1272.0      53.000     0.14511    
         TOTAL TIME 4.66560E+06  77760.      1296.0      54.000     0.14784    
1
 
 SOLVING FOR HEAD 

 OUTPUT CONTROL FOR STRESS PERIOD    2   TIME STEP  54
    SAVE HEAD FOR ALL LAYERS
    SAVE DRAWDOWN FOR ALL LAYERS
    SAVE BUDGET
    PRINT HEAD FOR ALL LAYERS
    PRINT BUDGET
 UBDSV1 SAVING "         STORAGE" ON UNIT  53 AT TIME STEP 54, STRESS PERIOD   2
 UBDSV2 SAVING "   CONSTANT HEAD" ON UNIT  53 AT TIME STEP 54, STRESS PERIOD   2
 UBDSV1 SAVING "FLOW RIGHT FACE " ON UNIT  53 AT TIME STEP 54, STRESS PERIOD   2
 UBDSV1 SAVING "FLOW FRONT FACE " ON UNIT  53 AT TIME STEP 54, STRESS PERIOD   2
1
              HEAD IN LAYER   1 AT END OF TIME STEP  54 IN STRESS PERIOD    2
  ---------------------------------------------------------------------------

            1           2           3           4           5           6           7           8           9          10
 ........................................................................................................................
   1    9.990       8.965       7.921       6.859       5.776       4.672       3.545       2.394       1.217      1.2194E-02
   2    9.990       8.965       7.921       6.859       5.776       4.672       3.545       2.394       1.217      1.2194E-02
   3    9.990       8.965       7.921       6.859       5.776       4.672       3.545       2.394       1.217      1.2194E-02
   4    9.990       8.965       7.921       6.859       5.776       4.672       3.545       2.394       1.217      1.2194E-02
   5    9.990       8.965       7.921       6.859       5.776       4.672       3.545       2.394       1.217      1.2194E-02
   6    9.990       8.965       7.921       6.859       5.776       4.672       3.545       2.394       1.217      1.2194E-02
   7    9.990       8.965       7.921       6.859       5.776       4.672       3.545       2.394       1.217      1.2194E-02
   8    9.990       8.965       7.921       6.859       5.776       4.672       3.545       2.394       1.217      1.2194E-02
   9    9.990       8.965       7.921       6.859       5.776       4.672       3.545       2.394       1.217      1.2194E-02
  10    9.990       8.965       7.921       6.859       5.776       4.672       3.545       2.394       1.217      1.2194E-02

 HEAD WILL BE SAVED ON UNIT   51 AT END OF TIME STEP  54, STRESS PERIOD    2

 DRAWDOWN WILL BE SAVED ON UNIT   52 AT END OF TIME STEP  54, STRESS PERIOD    2
1
  VOLUMETRIC BUDGET FOR ENTIRE MODEL AT END OF TIME STEP 54 IN STRESS PERIOD   2
  ------------------------------------------------------------------------------

     CUMULATIVE VOLUMES      L**3       RATES FOR THIS TIME STEP      L**3/T
     ------------------                 ------------------------

           IN:                                      IN:
           ---                                      ---
             STORAGE =       9.7656E-03               STORAGE =           0.0000
       CONSTANT HEAD =           0.0000         CONSTANT HEAD =           0.0000
               WELLS =           0.0000                 WELLS =           0.0000
     HEAD DEP BOUNDS =       33534.2930       HEAD DEP BOUNDS =         609.7147

            TOTAL IN =       33534.3047              TOTAL IN =         609.7147

          OUT:                                     OUT:
          ----                                     ----
             STORAGE =           0.2905               STORAGE =       5.3978E-03
       CONSTANT HEAD =           0.0000         CONSTANT HEAD =           0.0000
               WELLS =           0.0000                 WELLS =           0.0000
     HEAD DEP BOUNDS =       33532.9023       HEAD DEP BOUNDS =         609.6888

           TOTAL OUT =       33533.1914             TOTAL OUT =         609.6942

            IN - OUT =           1.1133              IN - OUT =       2.0447E-02

 PERCENT DISCREPANCY =           0.00     PERCENT DISCREPANCY =           0.00






          TIME SUMMARY AT END OF TIME STEP  54 IN STRESS PERIOD    2
                    SECONDS     MINUTES      HOURS       DAYS        YEARS
                    -----------------------------------------------------------
   TIME STEP LENGTH  86400.      1440.0      24.000      1.0000     2.73785E-03
 STRESS PERIOD TIME 4.66560E+06  77760.      1296.0      54.000     0.14784    
         TOTAL TIME 4.75200E+06  79200.      1320.0      55.000     0.15058    
1
 
 SOLVING FOR HEAD 

 OUTPUT CONTROL FOR STRESS PERIOD    2   TIME STEP  55
    SAVE HEAD FOR ALL LAYERS
    SAVE DRAWDOWN FOR ALL LAYERS
    SAVE BUDGET
    PRINT HEAD FOR ALL LAYERS
    PRINT BUDGET
 UBDSV1 SAVING "         STORAGE" ON UNIT  53 AT TIME STEP 55, STRESS PERIOD   2
 UBDSV2 SAVING "   CONSTANT HEAD" ON UNIT  53 AT TIME STEP 55, STRESS PERIOD   2
 UBDSV1 SAVING "FLOW RIGHT FACE " ON UNIT  53 AT TIME STEP 55, STRESS PERIOD   2
 UBDSV1 SAVING "FLOW FRONT FACE " ON UNIT  53 AT TIME STEP 55, STRESS PERIOD   2
1
              HEAD IN LAYER   1 AT END OF TIME STEP  55 IN STRESS PERIOD    2
  ---------------------------------------------------------------------------

            1           2           3           4           5           6           7           8           9          10
 ........................................................................................................................
   1    9.990       8.965       7.921       6.859       5.776       4.672       3.545       2.394       1.217      1.2194E-02
   2    9.990       8.965       7.921       6.859       5.776       4.672       3.545       2.394       1.217      1.2194E-02
   3    9.990       8.965       7.921       6.859       5.776       4.672       3.545       2.394       1.217      1.2194E-02
   4    9.990       8.965       7.921       6.859       5.776       4.672       3.545       2.394       1.217      1.2194E-02
   5    9.990       8.965       7.921       6.859       5.776       4.672       3.545       2.394       1.217      1.2194E-02
   6    9.990       8.965       7.921       6.859       5.776       4.672       3.545       2.394       1.217      1.2194E-02
   7    9.990       8.965       7.921       6.859       5.776       4.672       3.545       2.394       1.217      1.2194E-02
   8    9.990       8.965       7.921       6.859       5.776       4.672       3.545       2.394       1.217      1.2194E-02
   9    9.990       8.965       7.921       6.859       5.776       4.672       3.545       2.394       1.217      1.2194E-02
  10    9.990       8.965       7.921       6.859       5.776       4.672       3.545       2.394       1.217      1.2194E-02

 HEAD WILL BE SAVED ON UNIT   51 AT END OF TIME STEP  55, STRESS PERIOD    2

 DRAWDOWN WILL BE SAVED ON UNIT   52 AT END OF TIME STEP  55, STRESS PERIOD    2
1
  VOLUMETRIC BUDGET FOR ENTIRE MODEL AT END OF TIME STEP 55 IN STRESS PERIOD   2
  ------------------------------------------------------------------------------

     CUMULATIVE VOLUMES      L**3       RATES FOR THIS TIME STEP      L**3/T
     ------------------                 ------------------------

           IN:                                      IN:
           ---                                      ---
             STORAGE =       9.7656E-03               STORAGE =           0.0000
       CONSTANT HEAD =           0.0000         CONSTANT HEAD =           0.0000
               WELLS =           0.0000                 WELLS =           0.0000
     HEAD DEP BOUNDS =       34144.0078       HEAD DEP BOUNDS =         609.7147

            TOTAL IN =       34144.0156              TOTAL IN =         609.7147

          OUT:                                     OUT:
          ----                                     ----
             STORAGE =           0.2959               STORAGE =       5.3978E-03
       CONSTANT HEAD =           0.0000         CONSTANT HEAD =           0.0000
               WELLS =           0.0000                 WELLS =           0.0000
     HEAD DEP BOUNDS =       34142.5898       HEAD DEP BOUNDS =         609.6888

           TOTAL OUT =       34142.8867             TOTAL OUT =         609.6942

            IN - OUT =           1.1289              IN - OUT =       2.0447E-02

 PERCENT DISCREPANCY =           0.00     PERCENT DISCREPANCY =           0.00






          TIME SUMMARY AT END OF TIME STEP  55 IN STRESS PERIOD    2
                    SECONDS     MINUTES      HOURS       DAYS        YEARS
                    -----------------------------------------------------------
   TIME STEP LENGTH  86400.      1440.0      24.000      1.0000     2.73785E-03
 STRESS PERIOD TIME 4.75200E+06  79200.      1320.0      55.000     0.15058    
         TOTAL TIME 4.83840E+06  80640.      1344.0      56.000     0.15332    
1
 
 SOLVING FOR HEAD 

 OUTPUT CONTROL FOR STRESS PERIOD    2   TIME STEP  56
    SAVE HEAD FOR ALL LAYERS
    SAVE DRAWDOWN FOR ALL LAYERS
    SAVE BUDGET
    PRINT HEAD FOR ALL LAYERS
    PRINT BUDGET
 UBDSV1 SAVING "         STORAGE" ON UNIT  53 AT TIME STEP 56, STRESS PERIOD   2
 UBDSV2 SAVING "   CONSTANT HEAD" ON UNIT  53 AT TIME STEP 56, STRESS PERIOD   2
 UBDSV1 SAVING "FLOW RIGHT FACE " ON UNIT  53 AT TIME STEP 56, STRESS PERIOD   2
 UBDSV1 SAVING "FLOW FRONT FACE " ON UNIT  53 AT TIME STEP 56, STRESS PERIOD   2
1
              HEAD IN LAYER   1 AT END OF TIME STEP  56 IN STRESS PERIOD    2
  ---------------------------------------------------------------------------

            1           2           3           4           5           6           7           8           9          10
 ........................................................................................................................
   1    9.990       8.965       7.921       6.859       5.776       4.672       3.545       2.394       1.217      1.2194E-02
   2    9.990       8.965       7.921       6.859       5.776       4.672       3.545       2.394       1.217      1.2194E-02
   3    9.990       8.965       7.921       6.859       5.776       4.672       3.545       2.394       1.217      1.2194E-02
   4    9.990       8.965       7.921       6.859       5.776       4.672       3.545       2.394       1.217      1.2194E-02
   5    9.990       8.965       7.921       6.859       5.776       4.672       3.545       2.394       1.217      1.2194E-02
   6    9.990       8.965       7.921       6.859       5.776       4.672       3.545       2.394       1.217      1.2194E-02
   7    9.990       8.965       7.921       6.859       5.776       4.672       3.545       2.394       1.217      1.2194E-02
   8    9.990       8.965       7.921       6.859       5.776       4.672       3.545       2.394       1.217      1.2194E-02
   9    9.990       8.965       7.921       6.859       5.776       4.672       3.545       2.394       1.217      1.2194E-02
  10    9.990       8.965       7.921       6.859       5.776       4.672       3.545       2.394       1.217      1.2194E-02

 HEAD WILL BE SAVED ON UNIT   51 AT END OF TIME STEP  56, STRESS PERIOD    2

 DRAWDOWN WILL BE SAVED ON UNIT   52 AT END OF TIME STEP  56, STRESS PERIOD    2
1
  VOLUMETRIC BUDGET FOR ENTIRE MODEL AT END OF TIME STEP 56 IN STRESS PERIOD   2
  ------------------------------------------------------------------------------

     CUMULATIVE VOLUMES      L**3       RATES FOR THIS TIME STEP      L**3/T
     ------------------                 ------------------------

           IN:                                      IN:
           ---                                      ---
             STORAGE =       9.7656E-03               STORAGE =           0.0000
       CONSTANT HEAD =           0.0000         CONSTANT HEAD =           0.0000
               WELLS =           0.0000                 WELLS =           0.0000
     HEAD DEP BOUNDS =       34753.7227       HEAD DEP BOUNDS =         609.7147

            TOTAL IN =       34753.7344              TOTAL IN =         609.7147

          OUT:                                     OUT:
          ----                                     ----
             STORAGE =           0.3013               STORAGE =       5.3978E-03
       CONSTANT HEAD =           0.0000         CONSTANT HEAD =           0.0000
               WELLS =           0.0000                 WELLS =           0.0000
     HEAD DEP BOUNDS =       34752.2773       HEAD DEP BOUNDS =         609.6888

           TOTAL OUT =       34752.5781             TOTAL OUT =         609.6942

            IN - OUT =           1.1562              IN - OUT =       2.0447E-02

 PERCENT DISCREPANCY =           0.00     PERCENT DISCREPANCY =           0.00






          TIME SUMMARY AT END OF TIME STEP  56 IN STRESS PERIOD    2
                    SECONDS     MINUTES      HOURS       DAYS        YEARS
                    -----------------------------------------------------------
   TIME STEP LENGTH  86400.      1440.0      24.000      1.0000     2.73785E-03
 STRESS PERIOD TIME 4.83840E+06  80640.      1344.0      56.000     0.15332    
         TOTAL TIME 4.92480E+06  82080.      1368.0      57.000     0.15606    
1
 
 SOLVING FOR HEAD 

 OUTPUT CONTROL FOR STRESS PERIOD    2   TIME STEP  57
    SAVE HEAD FOR ALL LAYERS
    SAVE DRAWDOWN FOR ALL LAYERS
    SAVE BUDGET
    PRINT HEAD FOR ALL LAYERS
    PRINT BUDGET
 UBDSV1 SAVING "         STORAGE" ON UNIT  53 AT TIME STEP 57, STRESS PERIOD   2
 UBDSV2 SAVING "   CONSTANT HEAD" ON UNIT  53 AT TIME STEP 57, STRESS PERIOD   2
 UBDSV1 SAVING "FLOW RIGHT FACE " ON UNIT  53 AT TIME STEP 57, STRESS PERIOD   2
 UBDSV1 SAVING "FLOW FRONT FACE " ON UNIT  53 AT TIME STEP 57, STRESS PERIOD   2
1
              HEAD IN LAYER   1 AT END OF TIME STEP  57 IN STRESS PERIOD    2
  ---------------------------------------------------------------------------

            1           2           3           4           5           6           7           8           9          10
 ........................................................................................................................
   1    9.990       8.965       7.921       6.859       5.776       4.672       3.545       2.394       1.217      1.2194E-02
   2    9.990       8.965       7.921       6.859       5.776       4.672       3.545       2.394       1.217      1.2194E-02
   3    9.990       8.965       7.921       6.859       5.776       4.672       3.545       2.394       1.217      1.2194E-02
   4    9.990       8.965       7.921       6.859       5.776       4.672       3.545       2.394       1.217      1.2194E-02
   5    9.990       8.965       7.921       6.859       5.776       4.672       3.545       2.394       1.217      1.2194E-02
   6    9.990       8.965       7.921       6.859       5.776       4.672       3.545       2.394       1.217      1.2194E-02
   7    9.990       8.965       7.921       6.859       5.776       4.672       3.545       2.394       1.217      1.2194E-02
   8    9.990       8.965       7.921       6.859       5.776       4.672       3.545       2.394       1.217      1.2194E-02
   9    9.990       8.965       7.921       6.859       5.776       4.672       3.545       2.394       1.217      1.2194E-02
  10    9.990       8.965       7.921       6.859       5.776       4.672       3.545       2.394       1.217      1.2194E-02

 HEAD WILL BE SAVED ON UNIT   51 AT END OF TIME STEP  57, STRESS PERIOD    2

 DRAWDOWN WILL BE SAVED ON UNIT   52 AT END OF TIME STEP  57, STRESS PERIOD    2
1
  VOLUMETRIC BUDGET FOR ENTIRE MODEL AT END OF TIME STEP 57 IN STRESS PERIOD   2
  ------------------------------------------------------------------------------

     CUMULATIVE VOLUMES      L**3       RATES FOR THIS TIME STEP      L**3/T
     ------------------                 ------------------------

           IN:                                      IN:
           ---                                      ---
             STORAGE =       9.7656E-03               STORAGE =           0.0000
       CONSTANT HEAD =           0.0000         CONSTANT HEAD =           0.0000
               WELLS =           0.0000                 WELLS =           0.0000
     HEAD DEP BOUNDS =       35363.4375       HEAD DEP BOUNDS =         609.7147

            TOTAL IN =       35363.4453              TOTAL IN =         609.7147

          OUT:                                     OUT:
          ----                                     ----
             STORAGE =           0.3067               STORAGE =       5.3978E-03
       CONSTANT HEAD =           0.0000         CONSTANT HEAD =           0.0000
               WELLS =           0.0000                 WELLS =           0.0000
     HEAD DEP BOUNDS =       35361.9648       HEAD DEP BOUNDS =         609.6888

           TOTAL OUT =       35362.2734             TOTAL OUT =         609.6942

            IN - OUT =           1.1719              IN - OUT =       2.0447E-02

 PERCENT DISCREPANCY =           0.00     PERCENT DISCREPANCY =           0.00






          TIME SUMMARY AT END OF TIME STEP  57 IN STRESS PERIOD    2
                    SECONDS     MINUTES      HOURS       DAYS        YEARS
                    -----------------------------------------------------------
   TIME STEP LENGTH  86400.      1440.0      24.000      1.0000     2.73785E-03
 STRESS PERIOD TIME 4.92480E+06  82080.      1368.0      57.000     0.15606    
         TOTAL TIME 5.01120E+06  83520.      1392.0      58.000     0.15880    
1
 
 SOLVING FOR HEAD 

 OUTPUT CONTROL FOR STRESS PERIOD    2   TIME STEP  58
    SAVE HEAD FOR ALL LAYERS
    SAVE DRAWDOWN FOR ALL LAYERS
    SAVE BUDGET
    PRINT HEAD FOR ALL LAYERS
    PRINT BUDGET
 UBDSV1 SAVING "         STORAGE" ON UNIT  53 AT TIME STEP 58, STRESS PERIOD   2
 UBDSV2 SAVING "   CONSTANT HEAD" ON UNIT  53 AT TIME STEP 58, STRESS PERIOD   2
 UBDSV1 SAVING "FLOW RIGHT FACE " ON UNIT  53 AT TIME STEP 58, STRESS PERIOD   2
 UBDSV1 SAVING "FLOW FRONT FACE " ON UNIT  53 AT TIME STEP 58, STRESS PERIOD   2
1
              HEAD IN LAYER   1 AT END OF TIME STEP  58 IN STRESS PERIOD    2
  ---------------------------------------------------------------------------

            1           2           3           4           5           6           7           8           9          10
 ........................................................................................................................
   1    9.990       8.965       7.921       6.859       5.776       4.672       3.545       2.394       1.217      1.2194E-02
   2    9.990       8.965       7.921       6.859       5.776       4.672       3.545       2.394       1.217      1.2194E-02
   3    9.990       8.965       7.921       6.859       5.776       4.672       3.545       2.394       1.217      1.2194E-02
   4    9.990       8.965       7.921       6.859       5.776       4.672       3.545       2.394       1.217      1.2194E-02
   5    9.990       8.965       7.921       6.859       5.776       4.672       3.545       2.394       1.217      1.2194E-02
   6    9.990       8.965       7.921       6.859       5.776       4.672       3.545       2.394       1.217      1.2194E-02
   7    9.990       8.965       7.921       6.859       5.776       4.672       3.545       2.394       1.217      1.2194E-02
   8    9.990       8.965       7.921       6.859       5.776       4.672       3.545       2.394       1.217      1.2194E-02
   9    9.990       8.965       7.921       6.859       5.776       4.672       3.545       2.394       1.217      1.2194E-02
  10    9.990       8.965       7.921       6.859       5.776       4.672       3.545       2.394       1.217      1.2194E-02

 HEAD WILL BE SAVED ON UNIT   51 AT END OF TIME STEP  58, STRESS PERIOD    2

 DRAWDOWN WILL BE SAVED ON UNIT   52 AT END OF TIME STEP  58, STRESS PERIOD    2
1
  VOLUMETRIC BUDGET FOR ENTIRE MODEL AT END OF TIME STEP 58 IN STRESS PERIOD   2
  ------------------------------------------------------------------------------

     CUMULATIVE VOLUMES      L**3       RATES FOR THIS TIME STEP      L**3/T
     ------------------                 ------------------------

           IN:                                      IN:
           ---                                      ---
             STORAGE =       9.7656E-03               STORAGE =           0.0000
       CONSTANT HEAD =           0.0000         CONSTANT HEAD =           0.0000
               WELLS =           0.0000                 WELLS =           0.0000
     HEAD DEP BOUNDS =       35973.1523       HEAD DEP BOUNDS =         609.7147

            TOTAL IN =       35973.1641              TOTAL IN =         609.7147

          OUT:                                     OUT:
          ----                                     ----
             STORAGE =           0.3121               STORAGE =       5.3978E-03
       CONSTANT HEAD =           0.0000         CONSTANT HEAD =           0.0000
               WELLS =           0.0000                 WELLS =           0.0000
     HEAD DEP BOUNDS =       35971.6523       HEAD DEP BOUNDS =         609.6888

           TOTAL OUT =       35971.9648             TOTAL OUT =         609.6942

            IN - OUT =           1.1992              IN - OUT =       2.0447E-02

 PERCENT DISCREPANCY =           0.00     PERCENT DISCREPANCY =           0.00






          TIME SUMMARY AT END OF TIME STEP  58 IN STRESS PERIOD    2
                    SECONDS     MINUTES      HOURS       DAYS        YEARS
                    -----------------------------------------------------------
   TIME STEP LENGTH  86400.      1440.0      24.000      1.0000     2.73785E-03
 STRESS PERIOD TIME 5.01120E+06  83520.      1392.0      58.000     0.15880    
         TOTAL TIME 5.09760E+06  84960.      1416.0      59.000     0.16153    
1
 
 SOLVING FOR HEAD 

 OUTPUT CONTROL FOR STRESS PERIOD    2   TIME STEP  59
    SAVE HEAD FOR ALL LAYERS
    SAVE DRAWDOWN FOR ALL LAYERS
    SAVE BUDGET
    PRINT HEAD FOR ALL LAYERS
    PRINT BUDGET
 UBDSV1 SAVING "         STORAGE" ON UNIT  53 AT TIME STEP 59, STRESS PERIOD   2
 UBDSV2 SAVING "   CONSTANT HEAD" ON UNIT  53 AT TIME STEP 59, STRESS PERIOD   2
 UBDSV1 SAVING "FLOW RIGHT FACE " ON UNIT  53 AT TIME STEP 59, STRESS PERIOD   2
 UBDSV1 SAVING "FLOW FRONT FACE " ON UNIT  53 AT TIME STEP 59, STRESS PERIOD   2
1
              HEAD IN LAYER   1 AT END OF TIME STEP  59 IN STRESS PERIOD    2
  ---------------------------------------------------------------------------

            1           2           3           4           5           6           7           8           9          10
 ........................................................................................................................
   1    9.990       8.965       7.921       6.859       5.776       4.672       3.545       2.394       1.217      1.2194E-02
   2    9.990       8.965       7.921       6.859       5.776       4.672       3.545       2.394       1.217      1.2194E-02
   3    9.990       8.965       7.921       6.859       5.776       4.672       3.545       2.394       1.217      1.2194E-02
   4    9.990       8.965       7.921       6.859       5.776       4.672       3.545       2.394       1.217      1.2194E-02
   5    9.990       8.965       7.921       6.859       5.776       4.672       3.545       2.394       1.217      1.2194E-02
   6    9.990       8.965       7.921       6.859       5.776       4.672       3.545       2.394       1.217      1.2194E-02
   7    9.990       8.965       7.921       6.859       5.776       4.672       3.545       2.394       1.217      1.2194E-02
   8    9.990       8.965       7.921       6.859       5.776       4.672       3.545       2.394       1.217      1.2194E-02
   9    9.990       8.965       7.921       6.859       5.776       4.672       3.545       2.394       1.217      1.2194E-02
  10    9.990       8.965       7.921       6.859       5.776       4.672       3.545       2.394       1.217      1.2194E-02

 HEAD WILL BE SAVED ON UNIT   51 AT END OF TIME STEP  59, STRESS PERIOD    2

 DRAWDOWN WILL BE SAVED ON UNIT   52 AT END OF TIME STEP  59, STRESS PERIOD    2
1
  VOLUMETRIC BUDGET FOR ENTIRE MODEL AT END OF TIME STEP 59 IN STRESS PERIOD   2
  ------------------------------------------------------------------------------

     CUMULATIVE VOLUMES      L**3       RATES FOR THIS TIME STEP      L**3/T
     ------------------                 ------------------------

           IN:                                      IN:
           ---                                      ---
             STORAGE =       9.7656E-03               STORAGE =           0.0000
       CONSTANT HEAD =           0.0000         CONSTANT HEAD =           0.0000
               WELLS =           0.0000                 WELLS =           0.0000
     HEAD DEP BOUNDS =       36582.8672       HEAD DEP BOUNDS =         609.7147

            TOTAL IN =       36582.8750              TOTAL IN =         609.7147

          OUT:                                     OUT:
          ----                                     ----
             STORAGE =           0.3175               STORAGE =       5.3978E-03
       CONSTANT HEAD =           0.0000         CONSTANT HEAD =           0.0000
               WELLS =           0.0000                 WELLS =           0.0000
     HEAD DEP BOUNDS =       36581.3398       HEAD DEP BOUNDS =         609.6888

           TOTAL OUT =       36581.6562             TOTAL OUT =         609.6942

            IN - OUT =           1.2188              IN - OUT =       2.0447E-02

 PERCENT DISCREPANCY =           0.00     PERCENT DISCREPANCY =           0.00






          TIME SUMMARY AT END OF TIME STEP  59 IN STRESS PERIOD    2
                    SECONDS     MINUTES      HOURS       DAYS        YEARS
                    -----------------------------------------------------------
   TIME STEP LENGTH  86400.      1440.0      24.000      1.0000     2.73785E-03
 STRESS PERIOD TIME 5.09760E+06  84960.      1416.0      59.000     0.16153    
         TOTAL TIME 5.18400E+06  86400.      1440.0      60.000     0.16427    
1
 
 SOLVING FOR HEAD 

 OUTPUT CONTROL FOR STRESS PERIOD    2   TIME STEP  60
    SAVE HEAD FOR ALL LAYERS
    SAVE DRAWDOWN FOR ALL LAYERS
    SAVE BUDGET
    PRINT HEAD FOR ALL LAYERS
    PRINT BUDGET
 UBDSV1 SAVING "         STORAGE" ON UNIT  53 AT TIME STEP 60, STRESS PERIOD   2
 UBDSV2 SAVING "   CONSTANT HEAD" ON UNIT  53 AT TIME STEP 60, STRESS PERIOD   2
 UBDSV1 SAVING "FLOW RIGHT FACE " ON UNIT  53 AT TIME STEP 60, STRESS PERIOD   2
 UBDSV1 SAVING "FLOW FRONT FACE " ON UNIT  53 AT TIME STEP 60, STRESS PERIOD   2
1
              HEAD IN LAYER   1 AT END OF TIME STEP  60 IN STRESS PERIOD    2
  ---------------------------------------------------------------------------

            1           2           3           4           5           6           7           8           9          10
 ........................................................................................................................
   1    9.990       8.965       7.921       6.859       5.776       4.672       3.545       2.394       1.217      1.2194E-02
   2    9.990       8.965       7.921       6.859       5.776       4.672       3.545       2.394       1.217      1.2194E-02
   3    9.990       8.965       7.921       6.859       5.776       4.672       3.545       2.394       1.217      1.2194E-02
   4    9.990       8.965       7.921       6.859       5.776       4.672       3.545       2.394       1.217      1.2194E-02
   5    9.990       8.965       7.921       6.859       5.776       4.672       3.545       2.394       1.217      1.2194E-02
   6    9.990       8.965       7.921       6.859       5.776       4.672       3.545       2.394       1.217      1.2194E-02
   7    9.990       8.965       7.921       6.859       5.776       4.672       3.545       2.394       1.217      1.2194E-02
   8    9.990       8.965       7.921       6.859       5.776       4.672       3.545       2.394       1.217      1.2194E-02
   9    9.990       8.965       7.921       6.859       5.776       4.672       3.545       2.394       1.217      1.2194E-02
  10    9.990       8.965       7.921       6.859       5.776       4.672       3.545       2.394       1.217      1.2194E-02

 HEAD WILL BE SAVED ON UNIT   51 AT END OF TIME STEP  60, STRESS PERIOD    2

 DRAWDOWN WILL BE SAVED ON UNIT   52 AT END OF TIME STEP  60, STRESS PERIOD    2
1
  VOLUMETRIC BUDGET FOR ENTIRE MODEL AT END OF TIME STEP 60 IN STRESS PERIOD   2
  ------------------------------------------------------------------------------

     CUMULATIVE VOLUMES      L**3       RATES FOR THIS TIME STEP      L**3/T
     ------------------                 ------------------------

           IN:                                      IN:
           ---                                      ---
             STORAGE =       9.7656E-03               STORAGE =           0.0000
       CONSTANT HEAD =           0.0000         CONSTANT HEAD =           0.0000
               WELLS =           0.0000                 WELLS =           0.0000
     HEAD DEP BOUNDS =       37192.5820       HEAD DEP BOUNDS =         609.7147

            TOTAL IN =       37192.5938              TOTAL IN =         609.7147

          OUT:                                     OUT:
          ----                                     ----
             STORAGE =           0.3229               STORAGE =       5.3978E-03
       CONSTANT HEAD =           0.0000         CONSTANT HEAD =           0.0000
               WELLS =           0.0000                 WELLS =           0.0000
     HEAD DEP BOUNDS =       37191.0273       HEAD DEP BOUNDS =         609.6888

           TOTAL OUT =       37191.3516             TOTAL OUT =         609.6942

            IN - OUT =           1.2422              IN - OUT =       2.0447E-02

 PERCENT DISCREPANCY =           0.00     PERCENT DISCREPANCY =           0.00






          TIME SUMMARY AT END OF TIME STEP  60 IN STRESS PERIOD    2
                    SECONDS     MINUTES      HOURS       DAYS        YEARS
                    -----------------------------------------------------------
   TIME STEP LENGTH  86400.      1440.0      24.000      1.0000     2.73785E-03
 STRESS PERIOD TIME 5.18400E+06  86400.      1440.0      60.000     0.16427    
         TOTAL TIME 5.27040E+06  87840.      1464.0      61.000     0.16701    
1
 
 SOLVING FOR HEAD 

 OUTPUT CONTROL FOR STRESS PERIOD    2   TIME STEP  61
    SAVE HEAD FOR ALL LAYERS
    SAVE DRAWDOWN FOR ALL LAYERS
    SAVE BUDGET
    PRINT HEAD FOR ALL LAYERS
    PRINT BUDGET
 UBDSV1 SAVING "         STORAGE" ON UNIT  53 AT TIME STEP 61, STRESS PERIOD   2
 UBDSV2 SAVING "   CONSTANT HEAD" ON UNIT  53 AT TIME STEP 61, STRESS PERIOD   2
 UBDSV1 SAVING "FLOW RIGHT FACE " ON UNIT  53 AT TIME STEP 61, STRESS PERIOD   2
 UBDSV1 SAVING "FLOW FRONT FACE " ON UNIT  53 AT TIME STEP 61, STRESS PERIOD   2
1
              HEAD IN LAYER   1 AT END OF TIME STEP  61 IN STRESS PERIOD    2
  ---------------------------------------------------------------------------

            1           2           3           4           5           6           7           8           9          10
 ........................................................................................................................
   1    9.990       8.965       7.921       6.859       5.776       4.672       3.545       2.394       1.217      1.2194E-02
   2    9.990       8.965       7.921       6.859       5.776       4.672       3.545       2.394       1.217      1.2194E-02
   3    9.990       8.965       7.921       6.859       5.776       4.672       3.545       2.394       1.217      1.2194E-02
   4    9.990       8.965       7.921       6.859       5.776       4.672       3.545       2.394       1.217      1.2194E-02
   5    9.990       8.965       7.921       6.859       5.776       4.672       3.545       2.394       1.217      1.2194E-02
   6    9.990       8.965       7.921       6.859       5.776       4.672       3.545       2.394       1.217      1.2194E-02
   7    9.990       8.965       7.921       6.859       5.776       4.672       3.545       2.394       1.217      1.2194E-02
   8    9.990       8.965       7.921       6.859       5.776       4.672       3.545       2.394       1.217      1.2194E-02
   9    9.990       8.965       7.921       6.859       5.776       4.672       3.545       2.394       1.217      1.2194E-02
  10    9.990       8.965       7.921       6.859       5.776       4.672       3.545       2.394       1.217      1.2194E-02

 HEAD WILL BE SAVED ON UNIT   51 AT END OF TIME STEP  61, STRESS PERIOD    2

 DRAWDOWN WILL BE SAVED ON UNIT   52 AT END OF TIME STEP  61, STRESS PERIOD    2
1
  VOLUMETRIC BUDGET FOR ENTIRE MODEL AT END OF TIME STEP 61 IN STRESS PERIOD   2
  ------------------------------------------------------------------------------

     CUMULATIVE VOLUMES      L**3       RATES FOR THIS TIME STEP      L**3/T
     ------------------                 ------------------------

           IN:                                      IN:
           ---                                      ---
             STORAGE =       9.7656E-03               STORAGE =           0.0000
       CONSTANT HEAD =           0.0000         CONSTANT HEAD =           0.0000
               WELLS =           0.0000                 WELLS =           0.0000
     HEAD DEP BOUNDS =       37802.2969       HEAD DEP BOUNDS =         609.7147

            TOTAL IN =       37802.3047              TOTAL IN =         609.7147

          OUT:                                     OUT:
          ----                                     ----
             STORAGE =           0.3283               STORAGE =       5.3978E-03
       CONSTANT HEAD =           0.0000         CONSTANT HEAD =           0.0000
               WELLS =           0.0000                 WELLS =           0.0000
     HEAD DEP BOUNDS =       37800.7148       HEAD DEP BOUNDS =         609.6888

           TOTAL OUT =       37801.0430             TOTAL OUT =         609.6942

            IN - OUT =           1.2617              IN - OUT =       2.0447E-02

 PERCENT DISCREPANCY =           0.00     PERCENT DISCREPANCY =           0.00






          TIME SUMMARY AT END OF TIME STEP  61 IN STRESS PERIOD    2
                    SECONDS     MINUTES      HOURS       DAYS        YEARS
                    -----------------------------------------------------------
   TIME STEP LENGTH  86400.      1440.0      24.000      1.0000     2.73785E-03
 STRESS PERIOD TIME 5.27040E+06  87840.      1464.0      61.000     0.16701    
         TOTAL TIME 5.35680E+06  89280.      1488.0      62.000     0.16975    
1
 
 SOLVING FOR HEAD 

 OUTPUT CONTROL FOR STRESS PERIOD    2   TIME STEP  62
    SAVE HEAD FOR ALL LAYERS
    SAVE DRAWDOWN FOR ALL LAYERS
    SAVE BUDGET
    PRINT HEAD FOR ALL LAYERS
    PRINT BUDGET
 UBDSV1 SAVING "         STORAGE" ON UNIT  53 AT TIME STEP 62, STRESS PERIOD   2
 UBDSV2 SAVING "   CONSTANT HEAD" ON UNIT  53 AT TIME STEP 62, STRESS PERIOD   2
 UBDSV1 SAVING "FLOW RIGHT FACE " ON UNIT  53 AT TIME STEP 62, STRESS PERIOD   2
 UBDSV1 SAVING "FLOW FRONT FACE " ON UNIT  53 AT TIME STEP 62, STRESS PERIOD   2
1
              HEAD IN LAYER   1 AT END OF TIME STEP  62 IN STRESS PERIOD    2
  ---------------------------------------------------------------------------

            1           2           3           4           5           6           7           8           9          10
 ........................................................................................................................
   1    9.990       8.965       7.921       6.859       5.776       4.672       3.545       2.394       1.217      1.2194E-02
   2    9.990       8.965       7.921       6.859       5.776       4.672       3.545       2.394       1.217      1.2194E-02
   3    9.990       8.965       7.921       6.859       5.776       4.672       3.545       2.394       1.217      1.2194E-02
   4    9.990       8.965       7.921       6.859       5.776       4.672       3.545       2.394       1.217      1.2194E-02
   5    9.990       8.965       7.921       6.859       5.776       4.672       3.545       2.394       1.217      1.2194E-02
   6    9.990       8.965       7.921       6.859       5.776       4.672       3.545       2.394       1.217      1.2194E-02
   7    9.990       8.965       7.921       6.859       5.776       4.672       3.545       2.394       1.217      1.2194E-02
   8    9.990       8.965       7.921       6.859       5.776       4.672       3.545       2.394       1.217      1.2194E-02
   9    9.990       8.965       7.921       6.859       5.776       4.672       3.545       2.394       1.217      1.2194E-02
  10    9.990       8.965       7.921       6.859       5.776       4.672       3.545       2.394       1.217      1.2194E-02

 HEAD WILL BE SAVED ON UNIT   51 AT END OF TIME STEP  62, STRESS PERIOD    2

 DRAWDOWN WILL BE SAVED ON UNIT   52 AT END OF TIME STEP  62, STRESS PERIOD    2
1
  VOLUMETRIC BUDGET FOR ENTIRE MODEL AT END OF TIME STEP 62 IN STRESS PERIOD   2
  ------------------------------------------------------------------------------

     CUMULATIVE VOLUMES      L**3       RATES FOR THIS TIME STEP      L**3/T
     ------------------                 ------------------------

           IN:                                      IN:
           ---                                      ---
             STORAGE =       9.7656E-03               STORAGE =           0.0000
       CONSTANT HEAD =           0.0000         CONSTANT HEAD =           0.0000
               WELLS =           0.0000                 WELLS =           0.0000
     HEAD DEP BOUNDS =       38412.0117       HEAD DEP BOUNDS =         609.7147

            TOTAL IN =       38412.0234              TOTAL IN =         609.7147

          OUT:                                     OUT:
          ----                                     ----
             STORAGE =           0.3337               STORAGE =       5.3978E-03
       CONSTANT HEAD =           0.0000         CONSTANT HEAD =           0.0000
               WELLS =           0.0000                 WELLS =           0.0000
     HEAD DEP BOUNDS =       38410.4023       HEAD DEP BOUNDS =         609.6888

           TOTAL OUT =       38410.7344             TOTAL OUT =         609.6942

            IN - OUT =           1.2891              IN - OUT =       2.0447E-02

 PERCENT DISCREPANCY =           0.00     PERCENT DISCREPANCY =           0.00






          TIME SUMMARY AT END OF TIME STEP  62 IN STRESS PERIOD    2
                    SECONDS     MINUTES      HOURS       DAYS        YEARS
                    -----------------------------------------------------------
   TIME STEP LENGTH  86400.      1440.0      24.000      1.0000     2.73785E-03
 STRESS PERIOD TIME 5.35680E+06  89280.      1488.0      62.000     0.16975    
         TOTAL TIME 5.44320E+06  90720.      1512.0      63.000     0.17248    
1
 
 SOLVING FOR HEAD 

 OUTPUT CONTROL FOR STRESS PERIOD    2   TIME STEP  63
    SAVE HEAD FOR ALL LAYERS
    SAVE DRAWDOWN FOR ALL LAYERS
    SAVE BUDGET
    PRINT HEAD FOR ALL LAYERS
    PRINT BUDGET
 UBDSV1 SAVING "         STORAGE" ON UNIT  53 AT TIME STEP 63, STRESS PERIOD   2
 UBDSV2 SAVING "   CONSTANT HEAD" ON UNIT  53 AT TIME STEP 63, STRESS PERIOD   2
 UBDSV1 SAVING "FLOW RIGHT FACE " ON UNIT  53 AT TIME STEP 63, STRESS PERIOD   2
 UBDSV1 SAVING "FLOW FRONT FACE " ON UNIT  53 AT TIME STEP 63, STRESS PERIOD   2
1
              HEAD IN LAYER   1 AT END OF TIME STEP  63 IN STRESS PERIOD    2
  ---------------------------------------------------------------------------

            1           2           3           4           5           6           7           8           9          10
 ........................................................................................................................
   1    9.990       8.965       7.921       6.859       5.776       4.672       3.545       2.394       1.217      1.2194E-02
   2    9.990       8.965       7.921       6.859       5.776       4.672       3.545       2.394       1.217      1.2194E-02
   3    9.990       8.965       7.921       6.859       5.776       4.672       3.545       2.394       1.217      1.2194E-02
   4    9.990       8.965       7.921       6.859       5.776       4.672       3.545       2.394       1.217      1.2194E-02
   5    9.990       8.965       7.921       6.859       5.776       4.672       3.545       2.394       1.217      1.2194E-02
   6    9.990       8.965       7.921       6.859       5.776       4.672       3.545       2.394       1.217      1.2194E-02
   7    9.990       8.965       7.921       6.859       5.776       4.672       3.545       2.394       1.217      1.2194E-02
   8    9.990       8.965       7.921       6.859       5.776       4.672       3.545       2.394       1.217      1.2194E-02
   9    9.990       8.965       7.921       6.859       5.776       4.672       3.545       2.394       1.217      1.2194E-02
  10    9.990       8.965       7.921       6.859       5.776       4.672       3.545       2.394       1.217      1.2194E-02

 HEAD WILL BE SAVED ON UNIT   51 AT END OF TIME STEP  63, STRESS PERIOD    2

 DRAWDOWN WILL BE SAVED ON UNIT   52 AT END OF TIME STEP  63, STRESS PERIOD    2
1
  VOLUMETRIC BUDGET FOR ENTIRE MODEL AT END OF TIME STEP 63 IN STRESS PERIOD   2
  ------------------------------------------------------------------------------

     CUMULATIVE VOLUMES      L**3       RATES FOR THIS TIME STEP      L**3/T
     ------------------                 ------------------------

           IN:                                      IN:
           ---                                      ---
             STORAGE =       9.7656E-03               STORAGE =           0.0000
       CONSTANT HEAD =           0.0000         CONSTANT HEAD =           0.0000
               WELLS =           0.0000                 WELLS =           0.0000
     HEAD DEP BOUNDS =       39021.7266       HEAD DEP BOUNDS =         609.7147

            TOTAL IN =       39021.7344              TOTAL IN =         609.7147

          OUT:                                     OUT:
          ----                                     ----
             STORAGE =           0.3391               STORAGE =       5.3978E-03
       CONSTANT HEAD =           0.0000         CONSTANT HEAD =           0.0000
               WELLS =           0.0000                 WELLS =           0.0000
     HEAD DEP BOUNDS =       39020.0898       HEAD DEP BOUNDS =         609.6888

           TOTAL OUT =       39020.4297             TOTAL OUT =         609.6942

            IN - OUT =           1.3047              IN - OUT =       2.0447E-02

 PERCENT DISCREPANCY =           0.00     PERCENT DISCREPANCY =           0.00






          TIME SUMMARY AT END OF TIME STEP  63 IN STRESS PERIOD    2
                    SECONDS     MINUTES      HOURS       DAYS        YEARS
                    -----------------------------------------------------------
   TIME STEP LENGTH  86400.      1440.0      24.000      1.0000     2.73785E-03
 STRESS PERIOD TIME 5.44320E+06  90720.      1512.0      63.000     0.17248    
         TOTAL TIME 5.52960E+06  92160.      1536.0      64.000     0.17522    
1
 
 SOLVING FOR HEAD 

 OUTPUT CONTROL FOR STRESS PERIOD    2   TIME STEP  64
    SAVE HEAD FOR ALL LAYERS
    SAVE DRAWDOWN FOR ALL LAYERS
    SAVE BUDGET
    PRINT HEAD FOR ALL LAYERS
    PRINT BUDGET
 UBDSV1 SAVING "         STORAGE" ON UNIT  53 AT TIME STEP 64, STRESS PERIOD   2
 UBDSV2 SAVING "   CONSTANT HEAD" ON UNIT  53 AT TIME STEP 64, STRESS PERIOD   2
 UBDSV1 SAVING "FLOW RIGHT FACE " ON UNIT  53 AT TIME STEP 64, STRESS PERIOD   2
 UBDSV1 SAVING "FLOW FRONT FACE " ON UNIT  53 AT TIME STEP 64, STRESS PERIOD   2
1
              HEAD IN LAYER   1 AT END OF TIME STEP  64 IN STRESS PERIOD    2
  ---------------------------------------------------------------------------

            1           2           3           4           5           6           7           8           9          10
 ........................................................................................................................
   1    9.990       8.965       7.921       6.859       5.776       4.672       3.545       2.394       1.217      1.2194E-02
   2    9.990       8.965       7.921       6.859       5.776       4.672       3.545       2.394       1.217      1.2194E-02
   3    9.990       8.965       7.921       6.859       5.776       4.672       3.545       2.394       1.217      1.2194E-02
   4    9.990       8.965       7.921       6.859       5.776       4.672       3.545       2.394       1.217      1.2194E-02
   5    9.990       8.965       7.921       6.859       5.776       4.672       3.545       2.394       1.217      1.2194E-02
   6    9.990       8.965       7.921       6.859       5.776       4.672       3.545       2.394       1.217      1.2194E-02
   7    9.990       8.965       7.921       6.859       5.776       4.672       3.545       2.394       1.217      1.2194E-02
   8    9.990       8.965       7.921       6.859       5.776       4.672       3.545       2.394       1.217      1.2194E-02
   9    9.990       8.965       7.921       6.859       5.776       4.672       3.545       2.394       1.217      1.2194E-02
  10    9.990       8.965       7.921       6.859       5.776       4.672       3.545       2.394       1.217      1.2194E-02

 HEAD WILL BE SAVED ON UNIT   51 AT END OF TIME STEP  64, STRESS PERIOD    2

 DRAWDOWN WILL BE SAVED ON UNIT   52 AT END OF TIME STEP  64, STRESS PERIOD    2
1
  VOLUMETRIC BUDGET FOR ENTIRE MODEL AT END OF TIME STEP 64 IN STRESS PERIOD   2
  ------------------------------------------------------------------------------

     CUMULATIVE VOLUMES      L**3       RATES FOR THIS TIME STEP      L**3/T
     ------------------                 ------------------------

           IN:                                      IN:
           ---                                      ---
             STORAGE =       9.7656E-03               STORAGE =           0.0000
       CONSTANT HEAD =           0.0000         CONSTANT HEAD =           0.0000
               WELLS =           0.0000                 WELLS =           0.0000
     HEAD DEP BOUNDS =       39631.4414       HEAD DEP BOUNDS =         609.7147

            TOTAL IN =       39631.4531              TOTAL IN =         609.7147

          OUT:                                     OUT:
          ----                                     ----
             STORAGE =           0.3445               STORAGE =       5.3978E-03
       CONSTANT HEAD =           0.0000         CONSTANT HEAD =           0.0000
               WELLS =           0.0000                 WELLS =           0.0000
     HEAD DEP BOUNDS =       39629.7773       HEAD DEP BOUNDS =         609.6888

           TOTAL OUT =       39630.1211             TOTAL OUT =         609.6942

            IN - OUT =           1.3320              IN - OUT =       2.0447E-02

 PERCENT DISCREPANCY =           0.00     PERCENT DISCREPANCY =           0.00






          TIME SUMMARY AT END OF TIME STEP  64 IN STRESS PERIOD    2
                    SECONDS     MINUTES      HOURS       DAYS        YEARS
                    -----------------------------------------------------------
   TIME STEP LENGTH  86400.      1440.0      24.000      1.0000     2.73785E-03
 STRESS PERIOD TIME 5.52960E+06  92160.      1536.0      64.000     0.17522    
         TOTAL TIME 5.61600E+06  93600.      1560.0      65.000     0.17796    
1
 
 SOLVING FOR HEAD 

 OUTPUT CONTROL FOR STRESS PERIOD    2   TIME STEP  65
    SAVE HEAD FOR ALL LAYERS
    SAVE DRAWDOWN FOR ALL LAYERS
    SAVE BUDGET
    PRINT HEAD FOR ALL LAYERS
    PRINT BUDGET
 UBDSV1 SAVING "         STORAGE" ON UNIT  53 AT TIME STEP 65, STRESS PERIOD   2
 UBDSV2 SAVING "   CONSTANT HEAD" ON UNIT  53 AT TIME STEP 65, STRESS PERIOD   2
 UBDSV1 SAVING "FLOW RIGHT FACE " ON UNIT  53 AT TIME STEP 65, STRESS PERIOD   2
 UBDSV1 SAVING "FLOW FRONT FACE " ON UNIT  53 AT TIME STEP 65, STRESS PERIOD   2
1
              HEAD IN LAYER   1 AT END OF TIME STEP  65 IN STRESS PERIOD    2
  ---------------------------------------------------------------------------

            1           2           3           4           5           6           7           8           9          10
 ........................................................................................................................
   1    9.990       8.965       7.921       6.859       5.776       4.672       3.545       2.394       1.217      1.2194E-02
   2    9.990       8.965       7.921       6.859       5.776       4.672       3.545       2.394       1.217      1.2194E-02
   3    9.990       8.965       7.921       6.859       5.776       4.672       3.545       2.394       1.217      1.2194E-02
   4    9.990       8.965       7.921       6.859       5.776       4.672       3.545       2.394       1.217      1.2194E-02
   5    9.990       8.965       7.921       6.859       5.776       4.672       3.545       2.394       1.217      1.2194E-02
   6    9.990       8.965       7.921       6.859       5.776       4.672       3.545       2.394       1.217      1.2194E-02
   7    9.990       8.965       7.921       6.859       5.776       4.672       3.545       2.394       1.217      1.2194E-02
   8    9.990       8.965       7.921       6.859       5.776       4.672       3.545       2.394       1.217      1.2194E-02
   9    9.990       8.965       7.921       6.859       5.776       4.672       3.545       2.394       1.217      1.2194E-02
  10    9.990       8.965       7.921       6.859       5.776       4.672       3.545       2.394       1.217      1.2194E-02

 HEAD WILL BE SAVED ON UNIT   51 AT END OF TIME STEP  65, STRESS PERIOD    2

 DRAWDOWN WILL BE SAVED ON UNIT   52 AT END OF TIME STEP  65, STRESS PERIOD    2
1
  VOLUMETRIC BUDGET FOR ENTIRE MODEL AT END OF TIME STEP 65 IN STRESS PERIOD   2
  ------------------------------------------------------------------------------

     CUMULATIVE VOLUMES      L**3       RATES FOR THIS TIME STEP      L**3/T
     ------------------                 ------------------------

           IN:                                      IN:
           ---                                      ---
             STORAGE =       9.7656E-03               STORAGE =           0.0000
       CONSTANT HEAD =           0.0000         CONSTANT HEAD =           0.0000
               WELLS =           0.0000                 WELLS =           0.0000
     HEAD DEP BOUNDS =       40241.1562       HEAD DEP BOUNDS =         609.7147

            TOTAL IN =       40241.1641              TOTAL IN =         609.7147

          OUT:                                     OUT:
          ----                                     ----
             STORAGE =           0.3499               STORAGE =       5.3978E-03
       CONSTANT HEAD =           0.0000         CONSTANT HEAD =           0.0000
               WELLS =           0.0000                 WELLS =           0.0000
     HEAD DEP BOUNDS =       40239.4648       HEAD DEP BOUNDS =         609.6888

           TOTAL OUT =       40239.8164             TOTAL OUT =         609.6942

            IN - OUT =           1.3477              IN - OUT =       2.0447E-02

 PERCENT DISCREPANCY =           0.00     PERCENT DISCREPANCY =           0.00






          TIME SUMMARY AT END OF TIME STEP  65 IN STRESS PERIOD    2
                    SECONDS     MINUTES      HOURS       DAYS        YEARS
                    -----------------------------------------------------------
   TIME STEP LENGTH  86400.      1440.0      24.000      1.0000     2.73785E-03
 STRESS PERIOD TIME 5.61600E+06  93600.      1560.0      65.000     0.17796    
         TOTAL TIME 5.70240E+06  95040.      1584.0      66.000     0.18070    
1
 
 SOLVING FOR HEAD 

 OUTPUT CONTROL FOR STRESS PERIOD    2   TIME STEP  66
    SAVE HEAD FOR ALL LAYERS
    SAVE DRAWDOWN FOR ALL LAYERS
    SAVE BUDGET
    PRINT HEAD FOR ALL LAYERS
    PRINT BUDGET
 UBDSV1 SAVING "         STORAGE" ON UNIT  53 AT TIME STEP 66, STRESS PERIOD   2
 UBDSV2 SAVING "   CONSTANT HEAD" ON UNIT  53 AT TIME STEP 66, STRESS PERIOD   2
 UBDSV1 SAVING "FLOW RIGHT FACE " ON UNIT  53 AT TIME STEP 66, STRESS PERIOD   2
 UBDSV1 SAVING "FLOW FRONT FACE " ON UNIT  53 AT TIME STEP 66, STRESS PERIOD   2
1
              HEAD IN LAYER   1 AT END OF TIME STEP  66 IN STRESS PERIOD    2
  ---------------------------------------------------------------------------

            1           2           3           4           5           6           7           8           9          10
 ........................................................................................................................
   1    9.990       8.965       7.921       6.859       5.776       4.672       3.545       2.394       1.217      1.2194E-02
   2    9.990       8.965       7.921       6.859       5.776       4.672       3.545       2.394       1.217      1.2194E-02
   3    9.990       8.965       7.921       6.859       5.776       4.672       3.545       2.394       1.217      1.2194E-02
   4    9.990       8.965       7.921       6.859       5.776       4.672       3.545       2.394       1.217      1.2194E-02
   5    9.990       8.965       7.921       6.859       5.776       4.672       3.545       2.394       1.217      1.2194E-02
   6    9.990       8.965       7.921       6.859       5.776       4.672       3.545       2.394       1.217      1.2194E-02
   7    9.990       8.965       7.921       6.859       5.776       4.672       3.545       2.394       1.217      1.2194E-02
   8    9.990       8.965       7.921       6.859       5.776       4.672       3.545       2.394       1.217      1.2194E-02
   9    9.990       8.965       7.921       6.859       5.776       4.672       3.545       2.394       1.217      1.2194E-02
  10    9.990       8.965       7.921       6.859       5.776       4.672       3.545       2.394       1.217      1.2194E-02

 HEAD WILL BE SAVED ON UNIT   51 AT END OF TIME STEP  66, STRESS PERIOD    2

 DRAWDOWN WILL BE SAVED ON UNIT   52 AT END OF TIME STEP  66, STRESS PERIOD    2
1
  VOLUMETRIC BUDGET FOR ENTIRE MODEL AT END OF TIME STEP 66 IN STRESS PERIOD   2
  ------------------------------------------------------------------------------

     CUMULATIVE VOLUMES      L**3       RATES FOR THIS TIME STEP      L**3/T
     ------------------                 ------------------------

           IN:                                      IN:
           ---                                      ---
             STORAGE =       9.7656E-03               STORAGE =           0.0000
       CONSTANT HEAD =           0.0000         CONSTANT HEAD =           0.0000
               WELLS =           0.0000                 WELLS =           0.0000
     HEAD DEP BOUNDS =       40850.8711       HEAD DEP BOUNDS =         609.7147

            TOTAL IN =       40850.8828              TOTAL IN =         609.7147

          OUT:                                     OUT:
          ----                                     ----
             STORAGE =           0.3553               STORAGE =       5.3978E-03
       CONSTANT HEAD =           0.0000         CONSTANT HEAD =           0.0000
               WELLS =           0.0000                 WELLS =           0.0000
     HEAD DEP BOUNDS =       40849.1523       HEAD DEP BOUNDS =         609.6888

           TOTAL OUT =       40849.5078             TOTAL OUT =         609.6942

            IN - OUT =           1.3750              IN - OUT =       2.0447E-02

 PERCENT DISCREPANCY =           0.00     PERCENT DISCREPANCY =           0.00






          TIME SUMMARY AT END OF TIME STEP  66 IN STRESS PERIOD    2
                    SECONDS     MINUTES      HOURS       DAYS        YEARS
                    -----------------------------------------------------------
   TIME STEP LENGTH  86400.      1440.0      24.000      1.0000     2.73785E-03
 STRESS PERIOD TIME 5.70240E+06  95040.      1584.0      66.000     0.18070    
         TOTAL TIME 5.78880E+06  96480.      1608.0      67.000     0.18344    
1
 
 SOLVING FOR HEAD 

 OUTPUT CONTROL FOR STRESS PERIOD    2   TIME STEP  67
    SAVE HEAD FOR ALL LAYERS
    SAVE DRAWDOWN FOR ALL LAYERS
    SAVE BUDGET
    PRINT HEAD FOR ALL LAYERS
    PRINT BUDGET
 UBDSV1 SAVING "         STORAGE" ON UNIT  53 AT TIME STEP 67, STRESS PERIOD   2
 UBDSV2 SAVING "   CONSTANT HEAD" ON UNIT  53 AT TIME STEP 67, STRESS PERIOD   2
 UBDSV1 SAVING "FLOW RIGHT FACE " ON UNIT  53 AT TIME STEP 67, STRESS PERIOD   2
 UBDSV1 SAVING "FLOW FRONT FACE " ON UNIT  53 AT TIME STEP 67, STRESS PERIOD   2
1
              HEAD IN LAYER   1 AT END OF TIME STEP  67 IN STRESS PERIOD    2
  ---------------------------------------------------------------------------

            1           2           3           4           5           6           7           8           9          10
 ........................................................................................................................
   1    9.990       8.965       7.921       6.859       5.776       4.672       3.545       2.394       1.217      1.2194E-02
   2    9.990       8.965       7.921       6.859       5.776       4.672       3.545       2.394       1.217      1.2194E-02
   3    9.990       8.965       7.921       6.859       5.776       4.672       3.545       2.394       1.217      1.2194E-02
   4    9.990       8.965       7.921       6.859       5.776       4.672       3.545       2.394       1.217      1.2194E-02
   5    9.990       8.965       7.921       6.859       5.776       4.672       3.545       2.394       1.217      1.2194E-02
   6    9.990       8.965       7.921       6.859       5.776       4.672       3.545       2.394       1.217      1.2194E-02
   7    9.990       8.965       7.921       6.859       5.776       4.672       3.545       2.394       1.217      1.2194E-02
   8    9.990       8.965       7.921       6.859       5.776       4.672       3.545       2.394       1.217      1.2194E-02
   9    9.990       8.965       7.921       6.859       5.776       4.672       3.545       2.394       1.217      1.2194E-02
  10    9.990       8.965       7.921       6.859       5.776       4.672       3.545       2.394       1.217      1.2194E-02

 HEAD WILL BE SAVED ON UNIT   51 AT END OF TIME STEP  67, STRESS PERIOD    2

 DRAWDOWN WILL BE SAVED ON UNIT   52 AT END OF TIME STEP  67, STRESS PERIOD    2
1
  VOLUMETRIC BUDGET FOR ENTIRE MODEL AT END OF TIME STEP 67 IN STRESS PERIOD   2
  ------------------------------------------------------------------------------

     CUMULATIVE VOLUMES      L**3       RATES FOR THIS TIME STEP      L**3/T
     ------------------                 ------------------------

           IN:                                      IN:
           ---                                      ---
             STORAGE =       9.7656E-03               STORAGE =           0.0000
       CONSTANT HEAD =           0.0000         CONSTANT HEAD =           0.0000
               WELLS =           0.0000                 WELLS =           0.0000
     HEAD DEP BOUNDS =       41460.5859       HEAD DEP BOUNDS =         609.7147

            TOTAL IN =       41460.5938              TOTAL IN =         609.7147

          OUT:                                     OUT:
          ----                                     ----
             STORAGE =           0.3607               STORAGE =       5.3978E-03
       CONSTANT HEAD =           0.0000         CONSTANT HEAD =           0.0000
               WELLS =           0.0000                 WELLS =           0.0000
     HEAD DEP BOUNDS =       41458.8398       HEAD DEP BOUNDS =         609.6888

           TOTAL OUT =       41459.1992             TOTAL OUT =         609.6942

            IN - OUT =           1.3945              IN - OUT =       2.0447E-02

 PERCENT DISCREPANCY =           0.00     PERCENT DISCREPANCY =           0.00






          TIME SUMMARY AT END OF TIME STEP  67 IN STRESS PERIOD    2
                    SECONDS     MINUTES      HOURS       DAYS        YEARS
                    -----------------------------------------------------------
   TIME STEP LENGTH  86400.      1440.0      24.000      1.0000     2.73785E-03
 STRESS PERIOD TIME 5.78880E+06  96480.      1608.0      67.000     0.18344    
         TOTAL TIME 5.87520E+06  97920.      1632.0      68.000     0.18617    
1
 
 SOLVING FOR HEAD 

 OUTPUT CONTROL FOR STRESS PERIOD    2   TIME STEP  68
    SAVE HEAD FOR ALL LAYERS
    SAVE DRAWDOWN FOR ALL LAYERS
    SAVE BUDGET
    PRINT HEAD FOR ALL LAYERS
    PRINT BUDGET
 UBDSV1 SAVING "         STORAGE" ON UNIT  53 AT TIME STEP 68, STRESS PERIOD   2
 UBDSV2 SAVING "   CONSTANT HEAD" ON UNIT  53 AT TIME STEP 68, STRESS PERIOD   2
 UBDSV1 SAVING "FLOW RIGHT FACE " ON UNIT  53 AT TIME STEP 68, STRESS PERIOD   2
 UBDSV1 SAVING "FLOW FRONT FACE " ON UNIT  53 AT TIME STEP 68, STRESS PERIOD   2
1
              HEAD IN LAYER   1 AT END OF TIME STEP  68 IN STRESS PERIOD    2
  ---------------------------------------------------------------------------

            1           2           3           4           5           6           7           8           9          10
 ........................................................................................................................
   1    9.990       8.965       7.921       6.859       5.776       4.672       3.545       2.394       1.217      1.2194E-02
   2    9.990       8.965       7.921       6.859       5.776       4.672       3.545       2.394       1.217      1.2194E-02
   3    9.990       8.965       7.921       6.859       5.776       4.672       3.545       2.394       1.217      1.2194E-02
   4    9.990       8.965       7.921       6.859       5.776       4.672       3.545       2.394       1.217      1.2194E-02
   5    9.990       8.965       7.921       6.859       5.776       4.672       3.545       2.394       1.217      1.2194E-02
   6    9.990       8.965       7.921       6.859       5.776       4.672       3.545       2.394       1.217      1.2194E-02
   7    9.990       8.965       7.921       6.859       5.776       4.672       3.545       2.394       1.217      1.2194E-02
   8    9.990       8.965       7.921       6.859       5.776       4.672       3.545       2.394       1.217      1.2194E-02
   9    9.990       8.965       7.921       6.859       5.776       4.672       3.545       2.394       1.217      1.2194E-02
  10    9.990       8.965       7.921       6.859       5.776       4.672       3.545       2.394       1.217      1.2194E-02

 HEAD WILL BE SAVED ON UNIT   51 AT END OF TIME STEP  68, STRESS PERIOD    2

 DRAWDOWN WILL BE SAVED ON UNIT   52 AT END OF TIME STEP  68, STRESS PERIOD    2
1
  VOLUMETRIC BUDGET FOR ENTIRE MODEL AT END OF TIME STEP 68 IN STRESS PERIOD   2
  ------------------------------------------------------------------------------

     CUMULATIVE VOLUMES      L**3       RATES FOR THIS TIME STEP      L**3/T
     ------------------                 ------------------------

           IN:                                      IN:
           ---                                      ---
             STORAGE =       9.7656E-03               STORAGE =           0.0000
       CONSTANT HEAD =           0.0000         CONSTANT HEAD =           0.0000
               WELLS =           0.0000                 WELLS =           0.0000
     HEAD DEP BOUNDS =       42070.3008       HEAD DEP BOUNDS =         609.7147

            TOTAL IN =       42070.3125              TOTAL IN =         609.7147

          OUT:                                     OUT:
          ----                                     ----
             STORAGE =           0.3661               STORAGE =       5.3978E-03
       CONSTANT HEAD =           0.0000         CONSTANT HEAD =           0.0000
               WELLS =           0.0000                 WELLS =           0.0000
     HEAD DEP BOUNDS =       42068.5273       HEAD DEP BOUNDS =         609.6888

           TOTAL OUT =       42068.8945             TOTAL OUT =         609.6942

            IN - OUT =           1.4180              IN - OUT =       2.0447E-02

 PERCENT DISCREPANCY =           0.00     PERCENT DISCREPANCY =           0.00






          TIME SUMMARY AT END OF TIME STEP  68 IN STRESS PERIOD    2
                    SECONDS     MINUTES      HOURS       DAYS        YEARS
                    -----------------------------------------------------------
   TIME STEP LENGTH  86400.      1440.0      24.000      1.0000     2.73785E-03
 STRESS PERIOD TIME 5.87520E+06  97920.      1632.0      68.000     0.18617    
         TOTAL TIME 5.96160E+06  99360.      1656.0      69.000     0.18891    
1
 
 SOLVING FOR HEAD 

 OUTPUT CONTROL FOR STRESS PERIOD    2   TIME STEP  69
    SAVE HEAD FOR ALL LAYERS
    SAVE DRAWDOWN FOR ALL LAYERS
    SAVE BUDGET
    PRINT HEAD FOR ALL LAYERS
    PRINT BUDGET
 UBDSV1 SAVING "         STORAGE" ON UNIT  53 AT TIME STEP 69, STRESS PERIOD   2
 UBDSV2 SAVING "   CONSTANT HEAD" ON UNIT  53 AT TIME STEP 69, STRESS PERIOD   2
 UBDSV1 SAVING "FLOW RIGHT FACE " ON UNIT  53 AT TIME STEP 69, STRESS PERIOD   2
 UBDSV1 SAVING "FLOW FRONT FACE " ON UNIT  53 AT TIME STEP 69, STRESS PERIOD   2
1
              HEAD IN LAYER   1 AT END OF TIME STEP  69 IN STRESS PERIOD    2
  ---------------------------------------------------------------------------

            1           2           3           4           5           6           7           8           9          10
 ........................................................................................................................
   1    9.990       8.965       7.921       6.859       5.776       4.672       3.545       2.394       1.217      1.2194E-02
   2    9.990       8.965       7.921       6.859       5.776       4.672       3.545       2.394       1.217      1.2194E-02
   3    9.990       8.965       7.921       6.859       5.776       4.672       3.545       2.394       1.217      1.2194E-02
   4    9.990       8.965       7.921       6.859       5.776       4.672       3.545       2.394       1.217      1.2194E-02
   5    9.990       8.965       7.921       6.859       5.776       4.672       3.545       2.394       1.217      1.2194E-02
   6    9.990       8.965       7.921       6.859       5.776       4.672       3.545       2.394       1.217      1.2194E-02
   7    9.990       8.965       7.921       6.859       5.776       4.672       3.545       2.394       1.217      1.2194E-02
   8    9.990       8.965       7.921       6.859       5.776       4.672       3.545       2.394       1.217      1.2194E-02
   9    9.990       8.965       7.921       6.859       5.776       4.672       3.545       2.394       1.217      1.2194E-02
  10    9.990       8.965       7.921       6.859       5.776       4.672       3.545       2.394       1.217      1.2194E-02

 HEAD WILL BE SAVED ON UNIT   51 AT END OF TIME STEP  69, STRESS PERIOD    2

 DRAWDOWN WILL BE SAVED ON UNIT   52 AT END OF TIME STEP  69, STRESS PERIOD    2
1
  VOLUMETRIC BUDGET FOR ENTIRE MODEL AT END OF TIME STEP 69 IN STRESS PERIOD   2
  ------------------------------------------------------------------------------

     CUMULATIVE VOLUMES      L**3       RATES FOR THIS TIME STEP      L**3/T
     ------------------                 ------------------------

           IN:                                      IN:
           ---                                      ---
             STORAGE =       9.7656E-03               STORAGE =           0.0000
       CONSTANT HEAD =           0.0000         CONSTANT HEAD =           0.0000
               WELLS =           0.0000                 WELLS =           0.0000
     HEAD DEP BOUNDS =       42680.0156       HEAD DEP BOUNDS =         609.7147

            TOTAL IN =       42680.0234              TOTAL IN =         609.7147

          OUT:                                     OUT:
          ----                                     ----
             STORAGE =           0.3715               STORAGE =       5.3978E-03
       CONSTANT HEAD =           0.0000         CONSTANT HEAD =           0.0000
               WELLS =           0.0000                 WELLS =           0.0000
     HEAD DEP BOUNDS =       42678.2148       HEAD DEP BOUNDS =         609.6888

           TOTAL OUT =       42678.5859             TOTAL OUT =         609.6942

            IN - OUT =           1.4375              IN - OUT =       2.0447E-02

 PERCENT DISCREPANCY =           0.00     PERCENT DISCREPANCY =           0.00






          TIME SUMMARY AT END OF TIME STEP  69 IN STRESS PERIOD    2
                    SECONDS     MINUTES      HOURS       DAYS        YEARS
                    -----------------------------------------------------------
   TIME STEP LENGTH  86400.      1440.0      24.000      1.0000     2.73785E-03
 STRESS PERIOD TIME 5.96160E+06  99360.      1656.0      69.000     0.18891    
         TOTAL TIME 6.04800E+06 1.00800E+05  1680.0      70.000     0.19165    
1
 
 SOLVING FOR HEAD 

 OUTPUT CONTROL FOR STRESS PERIOD    2   TIME STEP  70
    SAVE HEAD FOR ALL LAYERS
    SAVE DRAWDOWN FOR ALL LAYERS
    SAVE BUDGET
    PRINT HEAD FOR ALL LAYERS
    PRINT BUDGET
 UBDSV1 SAVING "         STORAGE" ON UNIT  53 AT TIME STEP 70, STRESS PERIOD   2
 UBDSV2 SAVING "   CONSTANT HEAD" ON UNIT  53 AT TIME STEP 70, STRESS PERIOD   2
 UBDSV1 SAVING "FLOW RIGHT FACE " ON UNIT  53 AT TIME STEP 70, STRESS PERIOD   2
 UBDSV1 SAVING "FLOW FRONT FACE " ON UNIT  53 AT TIME STEP 70, STRESS PERIOD   2
1
              HEAD IN LAYER   1 AT END OF TIME STEP  70 IN STRESS PERIOD    2
  ---------------------------------------------------------------------------

            1           2           3           4           5           6           7           8           9          10
 ........................................................................................................................
   1    9.990       8.965       7.921       6.859       5.776       4.672       3.545       2.394       1.217      1.2194E-02
   2    9.990       8.965       7.921       6.859       5.776       4.672       3.545       2.394       1.217      1.2194E-02
   3    9.990       8.965       7.921       6.859       5.776       4.672       3.545       2.394       1.217      1.2194E-02
   4    9.990       8.965       7.921       6.859       5.776       4.672       3.545       2.394       1.217      1.2194E-02
   5    9.990       8.965       7.921       6.859       5.776       4.672       3.545       2.394       1.217      1.2194E-02
   6    9.990       8.965       7.921       6.859       5.776       4.672       3.545       2.394       1.217      1.2194E-02
   7    9.990       8.965       7.921       6.859       5.776       4.672       3.545       2.394       1.217      1.2194E-02
   8    9.990       8.965       7.921       6.859       5.776       4.672       3.545       2.394       1.217      1.2194E-02
   9    9.990       8.965       7.921       6.859       5.776       4.672       3.545       2.394       1.217      1.2194E-02
  10    9.990       8.965       7.921       6.859       5.776       4.672       3.545       2.394       1.217      1.2194E-02

 HEAD WILL BE SAVED ON UNIT   51 AT END OF TIME STEP  70, STRESS PERIOD    2

 DRAWDOWN WILL BE SAVED ON UNIT   52 AT END OF TIME STEP  70, STRESS PERIOD    2
1
  VOLUMETRIC BUDGET FOR ENTIRE MODEL AT END OF TIME STEP 70 IN STRESS PERIOD   2
  ------------------------------------------------------------------------------

     CUMULATIVE VOLUMES      L**3       RATES FOR THIS TIME STEP      L**3/T
     ------------------                 ------------------------

           IN:                                      IN:
           ---                                      ---
             STORAGE =       9.7656E-03               STORAGE =           0.0000
       CONSTANT HEAD =           0.0000         CONSTANT HEAD =           0.0000
               WELLS =           0.0000                 WELLS =           0.0000
     HEAD DEP BOUNDS =       43289.7305       HEAD DEP BOUNDS =         609.7147

            TOTAL IN =       43289.7422              TOTAL IN =         609.7147

          OUT:                                     OUT:
          ----                                     ----
             STORAGE =           0.3769               STORAGE =       5.3978E-03
       CONSTANT HEAD =           0.0000         CONSTANT HEAD =           0.0000
               WELLS =           0.0000                 WELLS =           0.0000
     HEAD DEP BOUNDS =       43287.9023       HEAD DEP BOUNDS =         609.6888

           TOTAL OUT =       43288.2773             TOTAL OUT =         609.6942

            IN - OUT =           1.4648              IN - OUT =       2.0447E-02

 PERCENT DISCREPANCY =           0.00     PERCENT DISCREPANCY =           0.00






          TIME SUMMARY AT END OF TIME STEP  70 IN STRESS PERIOD    2
                    SECONDS     MINUTES      HOURS       DAYS        YEARS
                    -----------------------------------------------------------
   TIME STEP LENGTH  86400.      1440.0      24.000      1.0000     2.73785E-03
 STRESS PERIOD TIME 6.04800E+06 1.00800E+05  1680.0      70.000     0.19165    
         TOTAL TIME 6.13440E+06 1.02240E+05  1704.0      71.000     0.19439    
1
 
 SOLVING FOR HEAD 

 OUTPUT CONTROL FOR STRESS PERIOD    2   TIME STEP  71
    SAVE HEAD FOR ALL LAYERS
    SAVE DRAWDOWN FOR ALL LAYERS
    SAVE BUDGET
    PRINT HEAD FOR ALL LAYERS
    PRINT BUDGET
 UBDSV1 SAVING "         STORAGE" ON UNIT  53 AT TIME STEP 71, STRESS PERIOD   2
 UBDSV2 SAVING "   CONSTANT HEAD" ON UNIT  53 AT TIME STEP 71, STRESS PERIOD   2
 UBDSV1 SAVING "FLOW RIGHT FACE " ON UNIT  53 AT TIME STEP 71, STRESS PERIOD   2
 UBDSV1 SAVING "FLOW FRONT FACE " ON UNIT  53 AT TIME STEP 71, STRESS PERIOD   2
1
              HEAD IN LAYER   1 AT END OF TIME STEP  71 IN STRESS PERIOD    2
  ---------------------------------------------------------------------------

            1           2           3           4           5           6           7           8           9          10
 ........................................................................................................................
   1    9.990       8.965       7.921       6.859       5.776       4.672       3.545       2.394       1.217      1.2194E-02
   2    9.990       8.965       7.921       6.859       5.776       4.672       3.545       2.394       1.217      1.2194E-02
   3    9.990       8.965       7.921       6.859       5.776       4.672       3.545       2.394       1.217      1.2194E-02
   4    9.990       8.965       7.921       6.859       5.776       4.672       3.545       2.394       1.217      1.2194E-02
   5    9.990       8.965       7.921       6.859       5.776       4.672       3.545       2.394       1.217      1.2194E-02
   6    9.990       8.965       7.921       6.859       5.776       4.672       3.545       2.394       1.217      1.2194E-02
   7    9.990       8.965       7.921       6.859       5.776       4.672       3.545       2.394       1.217      1.2194E-02
   8    9.990       8.965       7.921       6.859       5.776       4.672       3.545       2.394       1.217      1.2194E-02
   9    9.990       8.965       7.921       6.859       5.776       4.672       3.545       2.394       1.217      1.2194E-02
  10    9.990       8.965       7.921       6.859       5.776       4.672       3.545       2.394       1.217      1.2194E-02

 HEAD WILL BE SAVED ON UNIT   51 AT END OF TIME STEP  71, STRESS PERIOD    2

 DRAWDOWN WILL BE SAVED ON UNIT   52 AT END OF TIME STEP  71, STRESS PERIOD    2
1
  VOLUMETRIC BUDGET FOR ENTIRE MODEL AT END OF TIME STEP 71 IN STRESS PERIOD   2
  ------------------------------------------------------------------------------

     CUMULATIVE VOLUMES      L**3       RATES FOR THIS TIME STEP      L**3/T
     ------------------                 ------------------------

           IN:                                      IN:
           ---                                      ---
             STORAGE =       9.7656E-03               STORAGE =           0.0000
       CONSTANT HEAD =           0.0000         CONSTANT HEAD =           0.0000
               WELLS =           0.0000                 WELLS =           0.0000
     HEAD DEP BOUNDS =       43899.4453       HEAD DEP BOUNDS =         609.7147

            TOTAL IN =       43899.4531              TOTAL IN =         609.7147

          OUT:                                     OUT:
          ----                                     ----
             STORAGE =           0.3823               STORAGE =       5.3978E-03
       CONSTANT HEAD =           0.0000         CONSTANT HEAD =           0.0000
               WELLS =           0.0000                 WELLS =           0.0000
     HEAD DEP BOUNDS =       43897.5898       HEAD DEP BOUNDS =         609.6888

           TOTAL OUT =       43897.9727             TOTAL OUT =         609.6942

            IN - OUT =           1.4805              IN - OUT =       2.0447E-02

 PERCENT DISCREPANCY =           0.00     PERCENT DISCREPANCY =           0.00






          TIME SUMMARY AT END OF TIME STEP  71 IN STRESS PERIOD    2
                    SECONDS     MINUTES      HOURS       DAYS        YEARS
                    -----------------------------------------------------------
   TIME STEP LENGTH  86400.      1440.0      24.000      1.0000     2.73785E-03
 STRESS PERIOD TIME 6.13440E+06 1.02240E+05  1704.0      71.000     0.19439    
         TOTAL TIME 6.22080E+06 1.03680E+05  1728.0      72.000     0.19713    
1
 
 SOLVING FOR HEAD 

 OUTPUT CONTROL FOR STRESS PERIOD    2   TIME STEP  72
    SAVE HEAD FOR ALL LAYERS
    SAVE DRAWDOWN FOR ALL LAYERS
    SAVE BUDGET
    PRINT HEAD FOR ALL LAYERS
    PRINT BUDGET
 UBDSV1 SAVING "         STORAGE" ON UNIT  53 AT TIME STEP 72, STRESS PERIOD   2
 UBDSV2 SAVING "   CONSTANT HEAD" ON UNIT  53 AT TIME STEP 72, STRESS PERIOD   2
 UBDSV1 SAVING "FLOW RIGHT FACE " ON UNIT  53 AT TIME STEP 72, STRESS PERIOD   2
 UBDSV1 SAVING "FLOW FRONT FACE " ON UNIT  53 AT TIME STEP 72, STRESS PERIOD   2
1
              HEAD IN LAYER   1 AT END OF TIME STEP  72 IN STRESS PERIOD    2
  ---------------------------------------------------------------------------

            1           2           3           4           5           6           7           8           9          10
 ........................................................................................................................
   1    9.990       8.965       7.921       6.859       5.776       4.672       3.545       2.394       1.217      1.2194E-02
   2    9.990       8.965       7.921       6.859       5.776       4.672       3.545       2.394       1.217      1.2194E-02
   3    9.990       8.965       7.921       6.859       5.776       4.672       3.545       2.394       1.217      1.2194E-02
   4    9.990       8.965       7.921       6.859       5.776       4.672       3.545       2.394       1.217      1.2194E-02
   5    9.990       8.965       7.921       6.859       5.776       4.672       3.545       2.394       1.217      1.2194E-02
   6    9.990       8.965       7.921       6.859       5.776       4.672       3.545       2.394       1.217      1.2194E-02
   7    9.990       8.965       7.921       6.859       5.776       4.672       3.545       2.394       1.217      1.2194E-02
   8    9.990       8.965       7.921       6.859       5.776       4.672       3.545       2.394       1.217      1.2194E-02
   9    9.990       8.965       7.921       6.859       5.776       4.672       3.545       2.394       1.217      1.2194E-02
  10    9.990       8.965       7.921       6.859       5.776       4.672       3.545       2.394       1.217      1.2194E-02

 HEAD WILL BE SAVED ON UNIT   51 AT END OF TIME STEP  72, STRESS PERIOD    2

 DRAWDOWN WILL BE SAVED ON UNIT   52 AT END OF TIME STEP  72, STRESS PERIOD    2
1
  VOLUMETRIC BUDGET FOR ENTIRE MODEL AT END OF TIME STEP 72 IN STRESS PERIOD   2
  ------------------------------------------------------------------------------

     CUMULATIVE VOLUMES      L**3       RATES FOR THIS TIME STEP      L**3/T
     ------------------                 ------------------------

           IN:                                      IN:
           ---                                      ---
             STORAGE =       9.7656E-03               STORAGE =           0.0000
       CONSTANT HEAD =           0.0000         CONSTANT HEAD =           0.0000
               WELLS =           0.0000                 WELLS =           0.0000
     HEAD DEP BOUNDS =       44509.1602       HEAD DEP BOUNDS =         609.7147

            TOTAL IN =       44509.1719              TOTAL IN =         609.7147

          OUT:                                     OUT:
          ----                                     ----
             STORAGE =           0.3877               STORAGE =       5.3978E-03
       CONSTANT HEAD =           0.0000         CONSTANT HEAD =           0.0000
               WELLS =           0.0000                 WELLS =           0.0000
     HEAD DEP BOUNDS =       44507.2773       HEAD DEP BOUNDS =         609.6888

           TOTAL OUT =       44507.6641             TOTAL OUT =         609.6942

            IN - OUT =           1.5078              IN - OUT =       2.0447E-02

 PERCENT DISCREPANCY =           0.00     PERCENT DISCREPANCY =           0.00






          TIME SUMMARY AT END OF TIME STEP  72 IN STRESS PERIOD    2
                    SECONDS     MINUTES      HOURS       DAYS        YEARS
                    -----------------------------------------------------------
   TIME STEP LENGTH  86400.      1440.0      24.000      1.0000     2.73785E-03
 STRESS PERIOD TIME 6.22080E+06 1.03680E+05  1728.0      72.000     0.19713    
         TOTAL TIME 6.30720E+06 1.05120E+05  1752.0      73.000     0.19986    
1
 
 SOLVING FOR HEAD 

 OUTPUT CONTROL FOR STRESS PERIOD    2   TIME STEP  73
    SAVE HEAD FOR ALL LAYERS
    SAVE DRAWDOWN FOR ALL LAYERS
    SAVE BUDGET
    PRINT HEAD FOR ALL LAYERS
    PRINT BUDGET
 UBDSV1 SAVING "         STORAGE" ON UNIT  53 AT TIME STEP 73, STRESS PERIOD   2
 UBDSV2 SAVING "   CONSTANT HEAD" ON UNIT  53 AT TIME STEP 73, STRESS PERIOD   2
 UBDSV1 SAVING "FLOW RIGHT FACE " ON UNIT  53 AT TIME STEP 73, STRESS PERIOD   2
 UBDSV1 SAVING "FLOW FRONT FACE " ON UNIT  53 AT TIME STEP 73, STRESS PERIOD   2
1
              HEAD IN LAYER   1 AT END OF TIME STEP  73 IN STRESS PERIOD    2
  ---------------------------------------------------------------------------

            1           2           3           4           5           6           7           8           9          10
 ........................................................................................................................
   1    9.990       8.965       7.921       6.859       5.776       4.672       3.545       2.394       1.217      1.2194E-02
   2    9.990       8.965       7.921       6.859       5.776       4.672       3.545       2.394       1.217      1.2194E-02
   3    9.990       8.965       7.921       6.859       5.776       4.672       3.545       2.394       1.217      1.2194E-02
   4    9.990       8.965       7.921       6.859       5.776       4.672       3.545       2.394       1.217      1.2194E-02
   5    9.990       8.965       7.921       6.859       5.776       4.672       3.545       2.394       1.217      1.2194E-02
   6    9.990       8.965       7.921       6.859       5.776       4.672       3.545       2.394       1.217      1.2194E-02
   7    9.990       8.965       7.921       6.859       5.776       4.672       3.545       2.394       1.217      1.2194E-02
   8    9.990       8.965       7.921       6.859       5.776       4.672       3.545       2.394       1.217      1.2194E-02
   9    9.990       8.965       7.921       6.859       5.776       4.672       3.545       2.394       1.217      1.2194E-02
  10    9.990       8.965       7.921       6.859       5.776       4.672       3.545       2.394       1.217      1.2194E-02

 HEAD WILL BE SAVED ON UNIT   51 AT END OF TIME STEP  73, STRESS PERIOD    2

 DRAWDOWN WILL BE SAVED ON UNIT   52 AT END OF TIME STEP  73, STRESS PERIOD    2
1
  VOLUMETRIC BUDGET FOR ENTIRE MODEL AT END OF TIME STEP 73 IN STRESS PERIOD   2
  ------------------------------------------------------------------------------

     CUMULATIVE VOLUMES      L**3       RATES FOR THIS TIME STEP      L**3/T
     ------------------                 ------------------------

           IN:                                      IN:
           ---                                      ---
             STORAGE =       9.7656E-03               STORAGE =           0.0000
       CONSTANT HEAD =           0.0000         CONSTANT HEAD =           0.0000
               WELLS =           0.0000                 WELLS =           0.0000
     HEAD DEP BOUNDS =       45118.8750       HEAD DEP BOUNDS =         609.7147

            TOTAL IN =       45118.8828              TOTAL IN =         609.7147

          OUT:                                     OUT:
          ----                                     ----
             STORAGE =           0.3931               STORAGE =       5.3978E-03
       CONSTANT HEAD =           0.0000         CONSTANT HEAD =           0.0000
               WELLS =           0.0000                 WELLS =           0.0000
     HEAD DEP BOUNDS =       45116.9648       HEAD DEP BOUNDS =         609.6888

           TOTAL OUT =       45117.3594             TOTAL OUT =         609.6942

            IN - OUT =           1.5234              IN - OUT =       2.0447E-02

 PERCENT DISCREPANCY =           0.00     PERCENT DISCREPANCY =           0.00






          TIME SUMMARY AT END OF TIME STEP  73 IN STRESS PERIOD    2
                    SECONDS     MINUTES      HOURS       DAYS        YEARS
                    -----------------------------------------------------------
   TIME STEP LENGTH  86400.      1440.0      24.000      1.0000     2.73785E-03
 STRESS PERIOD TIME 6.30720E+06 1.05120E+05  1752.0      73.000     0.19986    
         TOTAL TIME 6.39360E+06 1.06560E+05  1776.0      74.000     0.20260    
1
 
 SOLVING FOR HEAD 

 OUTPUT CONTROL FOR STRESS PERIOD    2   TIME STEP  74
    SAVE HEAD FOR ALL LAYERS
    SAVE DRAWDOWN FOR ALL LAYERS
    SAVE BUDGET
    PRINT HEAD FOR ALL LAYERS
    PRINT BUDGET
 UBDSV1 SAVING "         STORAGE" ON UNIT  53 AT TIME STEP 74, STRESS PERIOD   2
 UBDSV2 SAVING "   CONSTANT HEAD" ON UNIT  53 AT TIME STEP 74, STRESS PERIOD   2
 UBDSV1 SAVING "FLOW RIGHT FACE " ON UNIT  53 AT TIME STEP 74, STRESS PERIOD   2
 UBDSV1 SAVING "FLOW FRONT FACE " ON UNIT  53 AT TIME STEP 74, STRESS PERIOD   2
1
              HEAD IN LAYER   1 AT END OF TIME STEP  74 IN STRESS PERIOD    2
  ---------------------------------------------------------------------------

            1           2           3           4           5           6           7           8           9          10
 ........................................................................................................................
   1    9.990       8.965       7.921       6.859       5.776       4.672       3.545       2.394       1.217      1.2194E-02
   2    9.990       8.965       7.921       6.859       5.776       4.672       3.545       2.394       1.217      1.2194E-02
   3    9.990       8.965       7.921       6.859       5.776       4.672       3.545       2.394       1.217      1.2194E-02
   4    9.990       8.965       7.921       6.859       5.776       4.672       3.545       2.394       1.217      1.2194E-02
   5    9.990       8.965       7.921       6.859       5.776       4.672       3.545       2.394       1.217      1.2194E-02
   6    9.990       8.965       7.921       6.859       5.776       4.672       3.545       2.394       1.217      1.2194E-02
   7    9.990       8.965       7.921       6.859       5.776       4.672       3.545       2.394       1.217      1.2194E-02
   8    9.990       8.965       7.921       6.859       5.776       4.672       3.545       2.394       1.217      1.2194E-02
   9    9.990       8.965       7.921       6.859       5.776       4.672       3.545       2.394       1.217      1.2194E-02
  10    9.990       8.965       7.921       6.859       5.776       4.672       3.545       2.394       1.217      1.2194E-02

 HEAD WILL BE SAVED ON UNIT   51 AT END OF TIME STEP  74, STRESS PERIOD    2

 DRAWDOWN WILL BE SAVED ON UNIT   52 AT END OF TIME STEP  74, STRESS PERIOD    2
1
  VOLUMETRIC BUDGET FOR ENTIRE MODEL AT END OF TIME STEP 74 IN STRESS PERIOD   2
  ------------------------------------------------------------------------------

     CUMULATIVE VOLUMES      L**3       RATES FOR THIS TIME STEP      L**3/T
     ------------------                 ------------------------

           IN:                                      IN:
           ---                                      ---
             STORAGE =       9.7656E-03               STORAGE =           0.0000
       CONSTANT HEAD =           0.0000         CONSTANT HEAD =           0.0000
               WELLS =           0.0000                 WELLS =           0.0000
     HEAD DEP BOUNDS =       45728.5898       HEAD DEP BOUNDS =         609.7147

            TOTAL IN =       45728.6016              TOTAL IN =         609.7147

          OUT:                                     OUT:
          ----                                     ----
             STORAGE =           0.3985               STORAGE =       5.3978E-03
       CONSTANT HEAD =           0.0000         CONSTANT HEAD =           0.0000
               WELLS =           0.0000                 WELLS =           0.0000
     HEAD DEP BOUNDS =       45726.6523       HEAD DEP BOUNDS =         609.6888

           TOTAL OUT =       45727.0508             TOTAL OUT =         609.6942

            IN - OUT =           1.5508              IN - OUT =       2.0447E-02

 PERCENT DISCREPANCY =           0.00     PERCENT DISCREPANCY =           0.00






          TIME SUMMARY AT END OF TIME STEP  74 IN STRESS PERIOD    2
                    SECONDS     MINUTES      HOURS       DAYS        YEARS
                    -----------------------------------------------------------
   TIME STEP LENGTH  86400.      1440.0      24.000      1.0000     2.73785E-03
 STRESS PERIOD TIME 6.39360E+06 1.06560E+05  1776.0      74.000     0.20260    
         TOTAL TIME 6.48000E+06 1.08000E+05  1800.0      75.000     0.20534    
1
 
 SOLVING FOR HEAD 

 OUTPUT CONTROL FOR STRESS PERIOD    2   TIME STEP  75
    SAVE HEAD FOR ALL LAYERS
    SAVE DRAWDOWN FOR ALL LAYERS
    SAVE BUDGET
    PRINT HEAD FOR ALL LAYERS
    PRINT BUDGET
 UBDSV1 SAVING "         STORAGE" ON UNIT  53 AT TIME STEP 75, STRESS PERIOD   2
 UBDSV2 SAVING "   CONSTANT HEAD" ON UNIT  53 AT TIME STEP 75, STRESS PERIOD   2
 UBDSV1 SAVING "FLOW RIGHT FACE " ON UNIT  53 AT TIME STEP 75, STRESS PERIOD   2
 UBDSV1 SAVING "FLOW FRONT FACE " ON UNIT  53 AT TIME STEP 75, STRESS PERIOD   2
1
              HEAD IN LAYER   1 AT END OF TIME STEP  75 IN STRESS PERIOD    2
  ---------------------------------------------------------------------------

            1           2           3           4           5           6           7           8           9          10
 ........................................................................................................................
   1    9.990       8.965       7.921       6.859       5.776       4.672       3.545       2.394       1.217      1.2194E-02
   2    9.990       8.965       7.921       6.859       5.776       4.672       3.545       2.394       1.217      1.2194E-02
   3    9.990       8.965       7.921       6.859       5.776       4.672       3.545       2.394       1.217      1.2194E-02
   4    9.990       8.965       7.921       6.859       5.776       4.672       3.545       2.394       1.217      1.2194E-02
   5    9.990       8.965       7.921       6.859       5.776       4.672       3.545       2.394       1.217      1.2194E-02
   6    9.990       8.965       7.921       6.859       5.776       4.672       3.545       2.394       1.217      1.2194E-02
   7    9.990       8.965       7.921       6.859       5.776       4.672       3.545       2.394       1.217      1.2194E-02
   8    9.990       8.965       7.921       6.859       5.776       4.672       3.545       2.394       1.217      1.2194E-02
   9    9.990       8.965       7.921       6.859       5.776       4.672       3.545       2.394       1.217      1.2194E-02
  10    9.990       8.965       7.921       6.859       5.776       4.672       3.545       2.394       1.217      1.2194E-02

 HEAD WILL BE SAVED ON UNIT   51 AT END OF TIME STEP  75, STRESS PERIOD    2

 DRAWDOWN WILL BE SAVED ON UNIT   52 AT END OF TIME STEP  75, STRESS PERIOD    2
1
  VOLUMETRIC BUDGET FOR ENTIRE MODEL AT END OF TIME STEP 75 IN STRESS PERIOD   2
  ------------------------------------------------------------------------------

     CUMULATIVE VOLUMES      L**3       RATES FOR THIS TIME STEP      L**3/T
     ------------------                 ------------------------

           IN:                                      IN:
           ---                                      ---
             STORAGE =       9.7656E-03               STORAGE =           0.0000
       CONSTANT HEAD =           0.0000         CONSTANT HEAD =           0.0000
               WELLS =           0.0000                 WELLS =           0.0000
     HEAD DEP BOUNDS =       46338.3047       HEAD DEP BOUNDS =         609.7147

            TOTAL IN =       46338.3125              TOTAL IN =         609.7147

          OUT:                                     OUT:
          ----                                     ----
             STORAGE =           0.4039               STORAGE =       5.3978E-03
       CONSTANT HEAD =           0.0000         CONSTANT HEAD =           0.0000
               WELLS =           0.0000                 WELLS =           0.0000
     HEAD DEP BOUNDS =       46336.3398       HEAD DEP BOUNDS =         609.6888

           TOTAL OUT =       46336.7422             TOTAL OUT =         609.6942

            IN - OUT =           1.5703              IN - OUT =       2.0447E-02

 PERCENT DISCREPANCY =           0.00     PERCENT DISCREPANCY =           0.00






          TIME SUMMARY AT END OF TIME STEP  75 IN STRESS PERIOD    2
                    SECONDS     MINUTES      HOURS       DAYS        YEARS
                    -----------------------------------------------------------
   TIME STEP LENGTH  86400.      1440.0      24.000      1.0000     2.73785E-03
 STRESS PERIOD TIME 6.48000E+06 1.08000E+05  1800.0      75.000     0.20534    
         TOTAL TIME 6.56640E+06 1.09440E+05  1824.0      76.000     0.20808    
1
 
 SOLVING FOR HEAD 

 OUTPUT CONTROL FOR STRESS PERIOD    2   TIME STEP  76
    SAVE HEAD FOR ALL LAYERS
    SAVE DRAWDOWN FOR ALL LAYERS
    SAVE BUDGET
    PRINT HEAD FOR ALL LAYERS
    PRINT BUDGET
 UBDSV1 SAVING "         STORAGE" ON UNIT  53 AT TIME STEP 76, STRESS PERIOD   2
 UBDSV2 SAVING "   CONSTANT HEAD" ON UNIT  53 AT TIME STEP 76, STRESS PERIOD   2
 UBDSV1 SAVING "FLOW RIGHT FACE " ON UNIT  53 AT TIME STEP 76, STRESS PERIOD   2
 UBDSV1 SAVING "FLOW FRONT FACE " ON UNIT  53 AT TIME STEP 76, STRESS PERIOD   2
1
              HEAD IN LAYER   1 AT END OF TIME STEP  76 IN STRESS PERIOD    2
  ---------------------------------------------------------------------------

            1           2           3           4           5           6           7           8           9          10
 ........................................................................................................................
   1    9.990       8.965       7.921       6.859       5.776       4.672       3.545       2.394       1.217      1.2194E-02
   2    9.990       8.965       7.921       6.859       5.776       4.672       3.545       2.394       1.217      1.2194E-02
   3    9.990       8.965       7.921       6.859       5.776       4.672       3.545       2.394       1.217      1.2194E-02
   4    9.990       8.965       7.921       6.859       5.776       4.672       3.545       2.394       1.217      1.2194E-02
   5    9.990       8.965       7.921       6.859       5.776       4.672       3.545       2.394       1.217      1.2194E-02
   6    9.990       8.965       7.921       6.859       5.776       4.672       3.545       2.394       1.217      1.2194E-02
   7    9.990       8.965       7.921       6.859       5.776       4.672       3.545       2.394       1.217      1.2194E-02
   8    9.990       8.965       7.921       6.859       5.776       4.672       3.545       2.394       1.217      1.2194E-02
   9    9.990       8.965       7.921       6.859       5.776       4.672       3.545       2.394       1.217      1.2194E-02
  10    9.990       8.965       7.921       6.859       5.776       4.672       3.545       2.394       1.217      1.2194E-02

 HEAD WILL BE SAVED ON UNIT   51 AT END OF TIME STEP  76, STRESS PERIOD    2

 DRAWDOWN WILL BE SAVED ON UNIT   52 AT END OF TIME STEP  76, STRESS PERIOD    2
1
  VOLUMETRIC BUDGET FOR ENTIRE MODEL AT END OF TIME STEP 76 IN STRESS PERIOD   2
  ------------------------------------------------------------------------------

     CUMULATIVE VOLUMES      L**3       RATES FOR THIS TIME STEP      L**3/T
     ------------------                 ------------------------

           IN:                                      IN:
           ---                                      ---
             STORAGE =       9.7656E-03               STORAGE =           0.0000
       CONSTANT HEAD =           0.0000         CONSTANT HEAD =           0.0000
               WELLS =           0.0000                 WELLS =           0.0000
     HEAD DEP BOUNDS =       46948.0195       HEAD DEP BOUNDS =         609.7147

            TOTAL IN =       46948.0312              TOTAL IN =         609.7147

          OUT:                                     OUT:
          ----                                     ----
             STORAGE =           0.4093               STORAGE =       5.3978E-03
       CONSTANT HEAD =           0.0000         CONSTANT HEAD =           0.0000
               WELLS =           0.0000                 WELLS =           0.0000
     HEAD DEP BOUNDS =       46946.0273       HEAD DEP BOUNDS =         609.6888

           TOTAL OUT =       46946.4375             TOTAL OUT =         609.6942

            IN - OUT =           1.5938              IN - OUT =       2.0447E-02

 PERCENT DISCREPANCY =           0.00     PERCENT DISCREPANCY =           0.00






          TIME SUMMARY AT END OF TIME STEP  76 IN STRESS PERIOD    2
                    SECONDS     MINUTES      HOURS       DAYS        YEARS
                    -----------------------------------------------------------
   TIME STEP LENGTH  86400.      1440.0      24.000      1.0000     2.73785E-03
 STRESS PERIOD TIME 6.56640E+06 1.09440E+05  1824.0      76.000     0.20808    
         TOTAL TIME 6.65280E+06 1.10880E+05  1848.0      77.000     0.21081    
1
 
 SOLVING FOR HEAD 

 OUTPUT CONTROL FOR STRESS PERIOD    2   TIME STEP  77
    SAVE HEAD FOR ALL LAYERS
    SAVE DRAWDOWN FOR ALL LAYERS
    SAVE BUDGET
    PRINT HEAD FOR ALL LAYERS
    PRINT BUDGET
 UBDSV1 SAVING "         STORAGE" ON UNIT  53 AT TIME STEP 77, STRESS PERIOD   2
 UBDSV2 SAVING "   CONSTANT HEAD" ON UNIT  53 AT TIME STEP 77, STRESS PERIOD   2
 UBDSV1 SAVING "FLOW RIGHT FACE " ON UNIT  53 AT TIME STEP 77, STRESS PERIOD   2
 UBDSV1 SAVING "FLOW FRONT FACE " ON UNIT  53 AT TIME STEP 77, STRESS PERIOD   2
1
              HEAD IN LAYER   1 AT END OF TIME STEP  77 IN STRESS PERIOD    2
  ---------------------------------------------------------------------------

            1           2           3           4           5           6           7           8           9          10
 ........................................................................................................................
   1    9.990       8.965       7.921       6.859       5.776       4.672       3.545       2.394       1.217      1.2194E-02
   2    9.990       8.965       7.921       6.859       5.776       4.672       3.545       2.394       1.217      1.2194E-02
   3    9.990       8.965       7.921       6.859       5.776       4.672       3.545       2.394       1.217      1.2194E-02
   4    9.990       8.965       7.921       6.859       5.776       4.672       3.545       2.394       1.217      1.2194E-02
   5    9.990       8.965       7.921       6.859       5.776       4.672       3.545       2.394       1.217      1.2194E-02
   6    9.990       8.965       7.921       6.859       5.776       4.672       3.545       2.394       1.217      1.2194E-02
   7    9.990       8.965       7.921       6.859       5.776       4.672       3.545       2.394       1.217      1.2194E-02
   8    9.990       8.965       7.921       6.859       5.776       4.672       3.545       2.394       1.217      1.2194E-02
   9    9.990       8.965       7.921       6.859       5.776       4.672       3.545       2.394       1.217      1.2194E-02
  10    9.990       8.965       7.921       6.859       5.776       4.672       3.545       2.394       1.217      1.2194E-02

 HEAD WILL BE SAVED ON UNIT   51 AT END OF TIME STEP  77, STRESS PERIOD    2

 DRAWDOWN WILL BE SAVED ON UNIT   52 AT END OF TIME STEP  77, STRESS PERIOD    2
1
  VOLUMETRIC BUDGET FOR ENTIRE MODEL AT END OF TIME STEP 77 IN STRESS PERIOD   2
  ------------------------------------------------------------------------------

     CUMULATIVE VOLUMES      L**3       RATES FOR THIS TIME STEP      L**3/T
     ------------------                 ------------------------

           IN:                                      IN:
           ---                                      ---
             STORAGE =       9.7656E-03               STORAGE =           0.0000
       CONSTANT HEAD =           0.0000         CONSTANT HEAD =           0.0000
               WELLS =           0.0000                 WELLS =           0.0000
     HEAD DEP BOUNDS =       47557.7344       HEAD DEP BOUNDS =         609.7147

            TOTAL IN =       47557.7422              TOTAL IN =         609.7147

          OUT:                                     OUT:
          ----                                     ----
             STORAGE =           0.4147               STORAGE =       5.3978E-03
       CONSTANT HEAD =           0.0000         CONSTANT HEAD =           0.0000
               WELLS =           0.0000                 WELLS =           0.0000
     HEAD DEP BOUNDS =       47555.7148       HEAD DEP BOUNDS =         609.6888

           TOTAL OUT =       47556.1289             TOTAL OUT =         609.6942

            IN - OUT =           1.6133              IN - OUT =       2.0447E-02

 PERCENT DISCREPANCY =           0.00     PERCENT DISCREPANCY =           0.00






          TIME SUMMARY AT END OF TIME STEP  77 IN STRESS PERIOD    2
                    SECONDS     MINUTES      HOURS       DAYS        YEARS
                    -----------------------------------------------------------
   TIME STEP LENGTH  86400.      1440.0      24.000      1.0000     2.73785E-03
 STRESS PERIOD TIME 6.65280E+06 1.10880E+05  1848.0      77.000     0.21081    
         TOTAL TIME 6.73920E+06 1.12320E+05  1872.0      78.000     0.21355    
1
 
 SOLVING FOR HEAD 

 OUTPUT CONTROL FOR STRESS PERIOD    2   TIME STEP  78
    SAVE HEAD FOR ALL LAYERS
    SAVE DRAWDOWN FOR ALL LAYERS
    SAVE BUDGET
    PRINT HEAD FOR ALL LAYERS
    PRINT BUDGET
 UBDSV1 SAVING "         STORAGE" ON UNIT  53 AT TIME STEP 78, STRESS PERIOD   2
 UBDSV2 SAVING "   CONSTANT HEAD" ON UNIT  53 AT TIME STEP 78, STRESS PERIOD   2
 UBDSV1 SAVING "FLOW RIGHT FACE " ON UNIT  53 AT TIME STEP 78, STRESS PERIOD   2
 UBDSV1 SAVING "FLOW FRONT FACE " ON UNIT  53 AT TIME STEP 78, STRESS PERIOD   2
1
              HEAD IN LAYER   1 AT END OF TIME STEP  78 IN STRESS PERIOD    2
  ---------------------------------------------------------------------------

            1           2           3           4           5           6           7           8           9          10
 ........................................................................................................................
   1    9.990       8.965       7.921       6.859       5.776       4.672       3.545       2.394       1.217      1.2194E-02
   2    9.990       8.965       7.921       6.859       5.776       4.672       3.545       2.394       1.217      1.2194E-02
   3    9.990       8.965       7.921       6.859       5.776       4.672       3.545       2.394       1.217      1.2194E-02
   4    9.990       8.965       7.921       6.859       5.776       4.672       3.545       2.394       1.217      1.2194E-02
   5    9.990       8.965       7.921       6.859       5.776       4.672       3.545       2.394       1.217      1.2194E-02
   6    9.990       8.965       7.921       6.859       5.776       4.672       3.545       2.394       1.217      1.2194E-02
   7    9.990       8.965       7.921       6.859       5.776       4.672       3.545       2.394       1.217      1.2194E-02
   8    9.990       8.965       7.921       6.859       5.776       4.672       3.545       2.394       1.217      1.2194E-02
   9    9.990       8.965       7.921       6.859       5.776       4.672       3.545       2.394       1.217      1.2194E-02
  10    9.990       8.965       7.921       6.859       5.776       4.672       3.545       2.394       1.217      1.2194E-02

 HEAD WILL BE SAVED ON UNIT   51 AT END OF TIME STEP  78, STRESS PERIOD    2

 DRAWDOWN WILL BE SAVED ON UNIT   52 AT END OF TIME STEP  78, STRESS PERIOD    2
1
  VOLUMETRIC BUDGET FOR ENTIRE MODEL AT END OF TIME STEP 78 IN STRESS PERIOD   2
  ------------------------------------------------------------------------------

     CUMULATIVE VOLUMES      L**3       RATES FOR THIS TIME STEP      L**3/T
     ------------------                 ------------------------

           IN:                                      IN:
           ---                                      ---
             STORAGE =       9.7656E-03               STORAGE =           0.0000
       CONSTANT HEAD =           0.0000         CONSTANT HEAD =           0.0000
               WELLS =           0.0000                 WELLS =           0.0000
     HEAD DEP BOUNDS =       48167.4492       HEAD DEP BOUNDS =         609.7147

            TOTAL IN =       48167.4609              TOTAL IN =         609.7147

          OUT:                                     OUT:
          ----                                     ----
             STORAGE =           0.4201               STORAGE =       5.3978E-03
       CONSTANT HEAD =           0.0000         CONSTANT HEAD =           0.0000
               WELLS =           0.0000                 WELLS =           0.0000
     HEAD DEP BOUNDS =       48165.4023       HEAD DEP BOUNDS =         609.6888

           TOTAL OUT =       48165.8242             TOTAL OUT =         609.6942

            IN - OUT =           1.6367              IN - OUT =       2.0447E-02

 PERCENT DISCREPANCY =           0.00     PERCENT DISCREPANCY =           0.00






          TIME SUMMARY AT END OF TIME STEP  78 IN STRESS PERIOD    2
                    SECONDS     MINUTES      HOURS       DAYS        YEARS
                    -----------------------------------------------------------
   TIME STEP LENGTH  86400.      1440.0      24.000      1.0000     2.73785E-03
 STRESS PERIOD TIME 6.73920E+06 1.12320E+05  1872.0      78.000     0.21355    
         TOTAL TIME 6.82560E+06 1.13760E+05  1896.0      79.000     0.21629    
1
 
 SOLVING FOR HEAD 

 OUTPUT CONTROL FOR STRESS PERIOD    2   TIME STEP  79
    SAVE HEAD FOR ALL LAYERS
    SAVE DRAWDOWN FOR ALL LAYERS
    SAVE BUDGET
    PRINT HEAD FOR ALL LAYERS
    PRINT BUDGET
 UBDSV1 SAVING "         STORAGE" ON UNIT  53 AT TIME STEP 79, STRESS PERIOD   2
 UBDSV2 SAVING "   CONSTANT HEAD" ON UNIT  53 AT TIME STEP 79, STRESS PERIOD   2
 UBDSV1 SAVING "FLOW RIGHT FACE " ON UNIT  53 AT TIME STEP 79, STRESS PERIOD   2
 UBDSV1 SAVING "FLOW FRONT FACE " ON UNIT  53 AT TIME STEP 79, STRESS PERIOD   2
1
              HEAD IN LAYER   1 AT END OF TIME STEP  79 IN STRESS PERIOD    2
  ---------------------------------------------------------------------------

            1           2           3           4           5           6           7           8           9          10
 ........................................................................................................................
   1    9.990       8.965       7.921       6.859       5.776       4.672       3.545       2.394       1.217      1.2194E-02
   2    9.990       8.965       7.921       6.859       5.776       4.672       3.545       2.394       1.217      1.2194E-02
   3    9.990       8.965       7.921       6.859       5.776       4.672       3.545       2.394       1.217      1.2194E-02
   4    9.990       8.965       7.921       6.859       5.776       4.672       3.545       2.394       1.217      1.2194E-02
   5    9.990       8.965       7.921       6.859       5.776       4.672       3.545       2.394       1.217      1.2194E-02
   6    9.990       8.965       7.921       6.859       5.776       4.672       3.545       2.394       1.217      1.2194E-02
   7    9.990       8.965       7.921       6.859       5.776       4.672       3.545       2.394       1.217      1.2194E-02
   8    9.990       8.965       7.921       6.859       5.776       4.672       3.545       2.394       1.217      1.2194E-02
   9    9.990       8.965       7.921       6.859       5.776       4.672       3.545       2.394       1.217      1.2194E-02
  10    9.990       8.965       7.921       6.859       5.776       4.672       3.545       2.394       1.217      1.2194E-02

 HEAD WILL BE SAVED ON UNIT   51 AT END OF TIME STEP  79, STRESS PERIOD    2

 DRAWDOWN WILL BE SAVED ON UNIT   52 AT END OF TIME STEP  79, STRESS PERIOD    2
1
  VOLUMETRIC BUDGET FOR ENTIRE MODEL AT END OF TIME STEP 79 IN STRESS PERIOD   2
  ------------------------------------------------------------------------------

     CUMULATIVE VOLUMES      L**3       RATES FOR THIS TIME STEP      L**3/T
     ------------------                 ------------------------

           IN:                                      IN:
           ---                                      ---
             STORAGE =       9.7656E-03               STORAGE =           0.0000
       CONSTANT HEAD =           0.0000         CONSTANT HEAD =           0.0000
               WELLS =           0.0000                 WELLS =           0.0000
     HEAD DEP BOUNDS =       48777.1641       HEAD DEP BOUNDS =         609.7147

            TOTAL IN =       48777.1719              TOTAL IN =         609.7147

          OUT:                                     OUT:
          ----                                     ----
             STORAGE =           0.4254               STORAGE =       5.3978E-03
       CONSTANT HEAD =           0.0000         CONSTANT HEAD =           0.0000
               WELLS =           0.0000                 WELLS =           0.0000
     HEAD DEP BOUNDS =       48775.0898       HEAD DEP BOUNDS =         609.6888

           TOTAL OUT =       48775.5156             TOTAL OUT =         609.6942

            IN - OUT =           1.6562              IN - OUT =       2.0447E-02

 PERCENT DISCREPANCY =           0.00     PERCENT DISCREPANCY =           0.00






          TIME SUMMARY AT END OF TIME STEP  79 IN STRESS PERIOD    2
                    SECONDS     MINUTES      HOURS       DAYS        YEARS
                    -----------------------------------------------------------
   TIME STEP LENGTH  86400.      1440.0      24.000      1.0000     2.73785E-03
 STRESS PERIOD TIME 6.82560E+06 1.13760E+05  1896.0      79.000     0.21629    
         TOTAL TIME 6.91200E+06 1.15200E+05  1920.0      80.000     0.21903    
1
 
 SOLVING FOR HEAD 

 OUTPUT CONTROL FOR STRESS PERIOD    2   TIME STEP  80
    SAVE HEAD FOR ALL LAYERS
    SAVE DRAWDOWN FOR ALL LAYERS
    SAVE BUDGET
    PRINT HEAD FOR ALL LAYERS
    PRINT BUDGET
 UBDSV1 SAVING "         STORAGE" ON UNIT  53 AT TIME STEP 80, STRESS PERIOD   2
 UBDSV2 SAVING "   CONSTANT HEAD" ON UNIT  53 AT TIME STEP 80, STRESS PERIOD   2
 UBDSV1 SAVING "FLOW RIGHT FACE " ON UNIT  53 AT TIME STEP 80, STRESS PERIOD   2
 UBDSV1 SAVING "FLOW FRONT FACE " ON UNIT  53 AT TIME STEP 80, STRESS PERIOD   2
1
              HEAD IN LAYER   1 AT END OF TIME STEP  80 IN STRESS PERIOD    2
  ---------------------------------------------------------------------------

            1           2           3           4           5           6           7           8           9          10
 ........................................................................................................................
   1    9.990       8.965       7.921       6.859       5.776       4.672       3.545       2.394       1.217      1.2194E-02
   2    9.990       8.965       7.921       6.859       5.776       4.672       3.545       2.394       1.217      1.2194E-02
   3    9.990       8.965       7.921       6.859       5.776       4.672       3.545       2.394       1.217      1.2194E-02
   4    9.990       8.965       7.921       6.859       5.776       4.672       3.545       2.394       1.217      1.2194E-02
   5    9.990       8.965       7.921       6.859       5.776       4.672       3.545       2.394       1.217      1.2194E-02
   6    9.990       8.965       7.921       6.859       5.776       4.672       3.545       2.394       1.217      1.2194E-02
   7    9.990       8.965       7.921       6.859       5.776       4.672       3.545       2.394       1.217      1.2194E-02
   8    9.990       8.965       7.921       6.859       5.776       4.672       3.545       2.394       1.217      1.2194E-02
   9    9.990       8.965       7.921       6.859       5.776       4.672       3.545       2.394       1.217      1.2194E-02
  10    9.990       8.965       7.921       6.859       5.776       4.672       3.545       2.394       1.217      1.2194E-02

 HEAD WILL BE SAVED ON UNIT   51 AT END OF TIME STEP  80, STRESS PERIOD    2

 DRAWDOWN WILL BE SAVED ON UNIT   52 AT END OF TIME STEP  80, STRESS PERIOD    2
1
  VOLUMETRIC BUDGET FOR ENTIRE MODEL AT END OF TIME STEP 80 IN STRESS PERIOD   2
  ------------------------------------------------------------------------------

     CUMULATIVE VOLUMES      L**3       RATES FOR THIS TIME STEP      L**3/T
     ------------------                 ------------------------

           IN:                                      IN:
           ---                                      ---
             STORAGE =       9.7656E-03               STORAGE =           0.0000
       CONSTANT HEAD =           0.0000         CONSTANT HEAD =           0.0000
               WELLS =           0.0000                 WELLS =           0.0000
     HEAD DEP BOUNDS =       49386.8789       HEAD DEP BOUNDS =         609.7147

            TOTAL IN =       49386.8906              TOTAL IN =         609.7147

          OUT:                                     OUT:
          ----                                     ----
             STORAGE =           0.4308               STORAGE =       5.3978E-03
       CONSTANT HEAD =           0.0000         CONSTANT HEAD =           0.0000
               WELLS =           0.0000                 WELLS =           0.0000
     HEAD DEP BOUNDS =       49384.7773       HEAD DEP BOUNDS =         609.6888

           TOTAL OUT =       49385.2070             TOTAL OUT =         609.6942

            IN - OUT =           1.6836              IN - OUT =       2.0447E-02

 PERCENT DISCREPANCY =           0.00     PERCENT DISCREPANCY =           0.00






          TIME SUMMARY AT END OF TIME STEP  80 IN STRESS PERIOD    2
                    SECONDS     MINUTES      HOURS       DAYS        YEARS
                    -----------------------------------------------------------
   TIME STEP LENGTH  86400.      1440.0      24.000      1.0000     2.73785E-03
 STRESS PERIOD TIME 6.91200E+06 1.15200E+05  1920.0      80.000     0.21903    
         TOTAL TIME 6.99840E+06 1.16640E+05  1944.0      81.000     0.22177    
1
 
 SOLVING FOR HEAD 

 OUTPUT CONTROL FOR STRESS PERIOD    2   TIME STEP  81
    SAVE HEAD FOR ALL LAYERS
    SAVE DRAWDOWN FOR ALL LAYERS
    SAVE BUDGET
    PRINT HEAD FOR ALL LAYERS
    PRINT BUDGET
 UBDSV1 SAVING "         STORAGE" ON UNIT  53 AT TIME STEP 81, STRESS PERIOD   2
 UBDSV2 SAVING "   CONSTANT HEAD" ON UNIT  53 AT TIME STEP 81, STRESS PERIOD   2
 UBDSV1 SAVING "FLOW RIGHT FACE " ON UNIT  53 AT TIME STEP 81, STRESS PERIOD   2
 UBDSV1 SAVING "FLOW FRONT FACE " ON UNIT  53 AT TIME STEP 81, STRESS PERIOD   2
1
              HEAD IN LAYER   1 AT END OF TIME STEP  81 IN STRESS PERIOD    2
  ---------------------------------------------------------------------------

            1           2           3           4           5           6           7           8           9          10
 ........................................................................................................................
   1    9.990       8.965       7.921       6.859       5.776       4.672       3.545       2.394       1.217      1.2194E-02
   2    9.990       8.965       7.921       6.859       5.776       4.672       3.545       2.394       1.217      1.2194E-02
   3    9.990       8.965       7.921       6.859       5.776       4.672       3.545       2.394       1.217      1.2194E-02
   4    9.990       8.965       7.921       6.859       5.776       4.672       3.545       2.394       1.217      1.2194E-02
   5    9.990       8.965       7.921       6.859       5.776       4.672       3.545       2.394       1.217      1.2194E-02
   6    9.990       8.965       7.921       6.859       5.776       4.672       3.545       2.394       1.217      1.2194E-02
   7    9.990       8.965       7.921       6.859       5.776       4.672       3.545       2.394       1.217      1.2194E-02
   8    9.990       8.965       7.921       6.859       5.776       4.672       3.545       2.394       1.217      1.2194E-02
   9    9.990       8.965       7.921       6.859       5.776       4.672       3.545       2.394       1.217      1.2194E-02
  10    9.990       8.965       7.921       6.859       5.776       4.672       3.545       2.394       1.217      1.2194E-02

 HEAD WILL BE SAVED ON UNIT   51 AT END OF TIME STEP  81, STRESS PERIOD    2

 DRAWDOWN WILL BE SAVED ON UNIT   52 AT END OF TIME STEP  81, STRESS PERIOD    2
1
  VOLUMETRIC BUDGET FOR ENTIRE MODEL AT END OF TIME STEP 81 IN STRESS PERIOD   2
  ------------------------------------------------------------------------------

     CUMULATIVE VOLUMES      L**3       RATES FOR THIS TIME STEP      L**3/T
     ------------------                 ------------------------

           IN:                                      IN:
           ---                                      ---
             STORAGE =       9.7656E-03               STORAGE =           0.0000
       CONSTANT HEAD =           0.0000         CONSTANT HEAD =           0.0000
               WELLS =           0.0000                 WELLS =           0.0000
     HEAD DEP BOUNDS =       49996.5938       HEAD DEP BOUNDS =         609.7147

            TOTAL IN =       49996.6016              TOTAL IN =         609.7147

          OUT:                                     OUT:
          ----                                     ----
             STORAGE =           0.4362               STORAGE =       5.3978E-03
       CONSTANT HEAD =           0.0000         CONSTANT HEAD =           0.0000
               WELLS =           0.0000                 WELLS =           0.0000
     HEAD DEP BOUNDS =       49994.4648       HEAD DEP BOUNDS =         609.6888

           TOTAL OUT =       49994.9023             TOTAL OUT =         609.6942

            IN - OUT =           1.6992              IN - OUT =       2.0447E-02

 PERCENT DISCREPANCY =           0.00     PERCENT DISCREPANCY =           0.00






          TIME SUMMARY AT END OF TIME STEP  81 IN STRESS PERIOD    2
                    SECONDS     MINUTES      HOURS       DAYS        YEARS
                    -----------------------------------------------------------
   TIME STEP LENGTH  86400.      1440.0      24.000      1.0000     2.73785E-03
 STRESS PERIOD TIME 6.99840E+06 1.16640E+05  1944.0      81.000     0.22177    
         TOTAL TIME 7.08480E+06 1.18080E+05  1968.0      82.000     0.22450    
1
 
 SOLVING FOR HEAD 

 OUTPUT CONTROL FOR STRESS PERIOD    2   TIME STEP  82
    SAVE HEAD FOR ALL LAYERS
    SAVE DRAWDOWN FOR ALL LAYERS
    SAVE BUDGET
    PRINT HEAD FOR ALL LAYERS
    PRINT BUDGET
 UBDSV1 SAVING "         STORAGE" ON UNIT  53 AT TIME STEP 82, STRESS PERIOD   2
 UBDSV2 SAVING "   CONSTANT HEAD" ON UNIT  53 AT TIME STEP 82, STRESS PERIOD   2
 UBDSV1 SAVING "FLOW RIGHT FACE " ON UNIT  53 AT TIME STEP 82, STRESS PERIOD   2
 UBDSV1 SAVING "FLOW FRONT FACE " ON UNIT  53 AT TIME STEP 82, STRESS PERIOD   2
1
              HEAD IN LAYER   1 AT END OF TIME STEP  82 IN STRESS PERIOD    2
  ---------------------------------------------------------------------------

            1           2           3           4           5           6           7           8           9          10
 ........................................................................................................................
   1    9.990       8.965       7.921       6.859       5.776       4.672       3.545       2.394       1.217      1.2194E-02
   2    9.990       8.965       7.921       6.859       5.776       4.672       3.545       2.394       1.217      1.2194E-02
   3    9.990       8.965       7.921       6.859       5.776       4.672       3.545       2.394       1.217      1.2194E-02
   4    9.990       8.965       7.921       6.859       5.776       4.672       3.545       2.394       1.217      1.2194E-02
   5    9.990       8.965       7.921       6.859       5.776       4.672       3.545       2.394       1.217      1.2194E-02
   6    9.990       8.965       7.921       6.859       5.776       4.672       3.545       2.394       1.217      1.2194E-02
   7    9.990       8.965       7.921       6.859       5.776       4.672       3.545       2.394       1.217      1.2194E-02
   8    9.990       8.965       7.921       6.859       5.776       4.672       3.545       2.394       1.217      1.2194E-02
   9    9.990       8.965       7.921       6.859       5.776       4.672       3.545       2.394       1.217      1.2194E-02
  10    9.990       8.965       7.921       6.859       5.776       4.672       3.545       2.394       1.217      1.2194E-02

 HEAD WILL BE SAVED ON UNIT   51 AT END OF TIME STEP  82, STRESS PERIOD    2

 DRAWDOWN WILL BE SAVED ON UNIT   52 AT END OF TIME STEP  82, STRESS PERIOD    2
1
  VOLUMETRIC BUDGET FOR ENTIRE MODEL AT END OF TIME STEP 82 IN STRESS PERIOD   2
  ------------------------------------------------------------------------------

     CUMULATIVE VOLUMES      L**3       RATES FOR THIS TIME STEP      L**3/T
     ------------------                 ------------------------

           IN:                                      IN:
           ---                                      ---
             STORAGE =       9.7656E-03               STORAGE =           0.0000
       CONSTANT HEAD =           0.0000         CONSTANT HEAD =           0.0000
               WELLS =           0.0000                 WELLS =           0.0000
     HEAD DEP BOUNDS =       50606.3086       HEAD DEP BOUNDS =         609.7147

            TOTAL IN =       50606.3203              TOTAL IN =         609.7147

          OUT:                                     OUT:
          ----                                     ----
             STORAGE =           0.4416               STORAGE =       5.3978E-03
       CONSTANT HEAD =           0.0000         CONSTANT HEAD =           0.0000
               WELLS =           0.0000                 WELLS =           0.0000
     HEAD DEP BOUNDS =       50604.1523       HEAD DEP BOUNDS =         609.6888

           TOTAL OUT =       50604.5938             TOTAL OUT =         609.6942

            IN - OUT =           1.7266              IN - OUT =       2.0447E-02

 PERCENT DISCREPANCY =           0.00     PERCENT DISCREPANCY =           0.00






          TIME SUMMARY AT END OF TIME STEP  82 IN STRESS PERIOD    2
                    SECONDS     MINUTES      HOURS       DAYS        YEARS
                    -----------------------------------------------------------
   TIME STEP LENGTH  86400.      1440.0      24.000      1.0000     2.73785E-03
 STRESS PERIOD TIME 7.08480E+06 1.18080E+05  1968.0      82.000     0.22450    
         TOTAL TIME 7.17120E+06 1.19520E+05  1992.0      83.000     0.22724    
1
 
 SOLVING FOR HEAD 

 OUTPUT CONTROL FOR STRESS PERIOD    2   TIME STEP  83
    SAVE HEAD FOR ALL LAYERS
    SAVE DRAWDOWN FOR ALL LAYERS
    SAVE BUDGET
    PRINT HEAD FOR ALL LAYERS
    PRINT BUDGET
 UBDSV1 SAVING "         STORAGE" ON UNIT  53 AT TIME STEP 83, STRESS PERIOD   2
 UBDSV2 SAVING "   CONSTANT HEAD" ON UNIT  53 AT TIME STEP 83, STRESS PERIOD   2
 UBDSV1 SAVING "FLOW RIGHT FACE " ON UNIT  53 AT TIME STEP 83, STRESS PERIOD   2
 UBDSV1 SAVING "FLOW FRONT FACE " ON UNIT  53 AT TIME STEP 83, STRESS PERIOD   2
1
              HEAD IN LAYER   1 AT END OF TIME STEP  83 IN STRESS PERIOD    2
  ---------------------------------------------------------------------------

            1           2           3           4           5           6           7           8           9          10
 ........................................................................................................................
   1    9.990       8.965       7.921       6.859       5.776       4.672       3.545       2.394       1.217      1.2194E-02
   2    9.990       8.965       7.921       6.859       5.776       4.672       3.545       2.394       1.217      1.2194E-02
   3    9.990       8.965       7.921       6.859       5.776       4.672       3.545       2.394       1.217      1.2194E-02
   4    9.990       8.965       7.921       6.859       5.776       4.672       3.545       2.394       1.217      1.2194E-02
   5    9.990       8.965       7.921       6.859       5.776       4.672       3.545       2.394       1.217      1.2194E-02
   6    9.990       8.965       7.921       6.859       5.776       4.672       3.545       2.394       1.217      1.2194E-02
   7    9.990       8.965       7.921       6.859       5.776       4.672       3.545       2.394       1.217      1.2194E-02
   8    9.990       8.965       7.921       6.859       5.776       4.672       3.545       2.394       1.217      1.2194E-02
   9    9.990       8.965       7.921       6.859       5.776       4.672       3.545       2.394       1.217      1.2194E-02
  10    9.990       8.965       7.921       6.859       5.776       4.672       3.545       2.394       1.217      1.2194E-02

 HEAD WILL BE SAVED ON UNIT   51 AT END OF TIME STEP  83, STRESS PERIOD    2

 DRAWDOWN WILL BE SAVED ON UNIT   52 AT END OF TIME STEP  83, STRESS PERIOD    2
1
  VOLUMETRIC BUDGET FOR ENTIRE MODEL AT END OF TIME STEP 83 IN STRESS PERIOD   2
  ------------------------------------------------------------------------------

     CUMULATIVE VOLUMES      L**3       RATES FOR THIS TIME STEP      L**3/T
     ------------------                 ------------------------

           IN:                                      IN:
           ---                                      ---
             STORAGE =       9.7656E-03               STORAGE =           0.0000
       CONSTANT HEAD =           0.0000         CONSTANT HEAD =           0.0000
               WELLS =           0.0000                 WELLS =           0.0000
     HEAD DEP BOUNDS =       51216.0234       HEAD DEP BOUNDS =         609.7147

            TOTAL IN =       51216.0312              TOTAL IN =         609.7147

          OUT:                                     OUT:
          ----                                     ----
             STORAGE =           0.4470               STORAGE =       5.3978E-03
       CONSTANT HEAD =           0.0000         CONSTANT HEAD =           0.0000
               WELLS =           0.0000                 WELLS =           0.0000
     HEAD DEP BOUNDS =       51213.8398       HEAD DEP BOUNDS =         609.6888

           TOTAL OUT =       51214.2852             TOTAL OUT =         609.6942

            IN - OUT =           1.7461              IN - OUT =       2.0447E-02

 PERCENT DISCREPANCY =           0.00     PERCENT DISCREPANCY =           0.00






          TIME SUMMARY AT END OF TIME STEP  83 IN STRESS PERIOD    2
                    SECONDS     MINUTES      HOURS       DAYS        YEARS
                    -----------------------------------------------------------
   TIME STEP LENGTH  86400.      1440.0      24.000      1.0000     2.73785E-03
 STRESS PERIOD TIME 7.17120E+06 1.19520E+05  1992.0      83.000     0.22724    
         TOTAL TIME 7.25760E+06 1.20960E+05  2016.0      84.000     0.22998    
1
 
 SOLVING FOR HEAD 

 OUTPUT CONTROL FOR STRESS PERIOD    2   TIME STEP  84
    SAVE HEAD FOR ALL LAYERS
    SAVE DRAWDOWN FOR ALL LAYERS
    SAVE BUDGET
    PRINT HEAD FOR ALL LAYERS
    PRINT BUDGET
 UBDSV1 SAVING "         STORAGE" ON UNIT  53 AT TIME STEP 84, STRESS PERIOD   2
 UBDSV2 SAVING "   CONSTANT HEAD" ON UNIT  53 AT TIME STEP 84, STRESS PERIOD   2
 UBDSV1 SAVING "FLOW RIGHT FACE " ON UNIT  53 AT TIME STEP 84, STRESS PERIOD   2
 UBDSV1 SAVING "FLOW FRONT FACE " ON UNIT  53 AT TIME STEP 84, STRESS PERIOD   2
1
              HEAD IN LAYER   1 AT END OF TIME STEP  84 IN STRESS PERIOD    2
  ---------------------------------------------------------------------------

            1           2           3           4           5           6           7           8           9          10
 ........................................................................................................................
   1    9.990       8.965       7.921       6.859       5.776       4.672       3.545       2.394       1.217      1.2194E-02
   2    9.990       8.965       7.921       6.859       5.776       4.672       3.545       2.394       1.217      1.2194E-02
   3    9.990       8.965       7.921       6.859       5.776       4.672       3.545       2.394       1.217      1.2194E-02
   4    9.990       8.965       7.921       6.859       5.776       4.672       3.545       2.394       1.217      1.2194E-02
   5    9.990       8.965       7.921       6.859       5.776       4.672       3.545       2.394       1.217      1.2194E-02
   6    9.990       8.965       7.921       6.859       5.776       4.672       3.545       2.394       1.217      1.2194E-02
   7    9.990       8.965       7.921       6.859       5.776       4.672       3.545       2.394       1.217      1.2194E-02
   8    9.990       8.965       7.921       6.859       5.776       4.672       3.545       2.394       1.217      1.2194E-02
   9    9.990       8.965       7.921       6.859       5.776       4.672       3.545       2.394       1.217      1.2194E-02
  10    9.990       8.965       7.921       6.859       5.776       4.672       3.545       2.394       1.217      1.2194E-02

 HEAD WILL BE SAVED ON UNIT   51 AT END OF TIME STEP  84, STRESS PERIOD    2

 DRAWDOWN WILL BE SAVED ON UNIT   52 AT END OF TIME STEP  84, STRESS PERIOD    2
1
  VOLUMETRIC BUDGET FOR ENTIRE MODEL AT END OF TIME STEP 84 IN STRESS PERIOD   2
  ------------------------------------------------------------------------------

     CUMULATIVE VOLUMES      L**3       RATES FOR THIS TIME STEP      L**3/T
     ------------------                 ------------------------

           IN:                                      IN:
           ---                                      ---
             STORAGE =       9.7656E-03               STORAGE =           0.0000
       CONSTANT HEAD =           0.0000         CONSTANT HEAD =           0.0000
               WELLS =           0.0000                 WELLS =           0.0000
     HEAD DEP BOUNDS =       51825.7383       HEAD DEP BOUNDS =         609.7147

            TOTAL IN =       51825.7500              TOTAL IN =         609.7147

          OUT:                                     OUT:
          ----                                     ----
             STORAGE =           0.4524               STORAGE =       5.3978E-03
       CONSTANT HEAD =           0.0000         CONSTANT HEAD =           0.0000
               WELLS =           0.0000                 WELLS =           0.0000
     HEAD DEP BOUNDS =       51823.5273       HEAD DEP BOUNDS =         609.6888

           TOTAL OUT =       51823.9805             TOTAL OUT =         609.6942

            IN - OUT =           1.7695              IN - OUT =       2.0447E-02

 PERCENT DISCREPANCY =           0.00     PERCENT DISCREPANCY =           0.00






          TIME SUMMARY AT END OF TIME STEP  84 IN STRESS PERIOD    2
                    SECONDS     MINUTES      HOURS       DAYS        YEARS
                    -----------------------------------------------------------
   TIME STEP LENGTH  86400.      1440.0      24.000      1.0000     2.73785E-03
 STRESS PERIOD TIME 7.25760E+06 1.20960E+05  2016.0      84.000     0.22998    
         TOTAL TIME 7.34400E+06 1.22400E+05  2040.0      85.000     0.23272    
1
 
 SOLVING FOR HEAD 

 OUTPUT CONTROL FOR STRESS PERIOD    2   TIME STEP  85
    SAVE HEAD FOR ALL LAYERS
    SAVE DRAWDOWN FOR ALL LAYERS
    SAVE BUDGET
    PRINT HEAD FOR ALL LAYERS
    PRINT BUDGET
 UBDSV1 SAVING "         STORAGE" ON UNIT  53 AT TIME STEP 85, STRESS PERIOD   2
 UBDSV2 SAVING "   CONSTANT HEAD" ON UNIT  53 AT TIME STEP 85, STRESS PERIOD   2
 UBDSV1 SAVING "FLOW RIGHT FACE " ON UNIT  53 AT TIME STEP 85, STRESS PERIOD   2
 UBDSV1 SAVING "FLOW FRONT FACE " ON UNIT  53 AT TIME STEP 85, STRESS PERIOD   2
1
              HEAD IN LAYER   1 AT END OF TIME STEP  85 IN STRESS PERIOD    2
  ---------------------------------------------------------------------------

            1           2           3           4           5           6           7           8           9          10
 ........................................................................................................................
   1    9.990       8.965       7.921       6.859       5.776       4.672       3.545       2.394       1.217      1.2194E-02
   2    9.990       8.965       7.921       6.859       5.776       4.672       3.545       2.394       1.217      1.2194E-02
   3    9.990       8.965       7.921       6.859       5.776       4.672       3.545       2.394       1.217      1.2194E-02
   4    9.990       8.965       7.921       6.859       5.776       4.672       3.545       2.394       1.217      1.2194E-02
   5    9.990       8.965       7.921       6.859       5.776       4.672       3.545       2.394       1.217      1.2194E-02
   6    9.990       8.965       7.921       6.859       5.776       4.672       3.545       2.394       1.217      1.2194E-02
   7    9.990       8.965       7.921       6.859       5.776       4.672       3.545       2.394       1.217      1.2194E-02
   8    9.990       8.965       7.921       6.859       5.776       4.672       3.545       2.394       1.217      1.2194E-02
   9    9.990       8.965       7.921       6.859       5.776       4.672       3.545       2.394       1.217      1.2194E-02
  10    9.990       8.965       7.921       6.859       5.776       4.672       3.545       2.394       1.217      1.2194E-02

 HEAD WILL BE SAVED ON UNIT   51 AT END OF TIME STEP  85, STRESS PERIOD    2

 DRAWDOWN WILL BE SAVED ON UNIT   52 AT END OF TIME STEP  85, STRESS PERIOD    2
1
  VOLUMETRIC BUDGET FOR ENTIRE MODEL AT END OF TIME STEP 85 IN STRESS PERIOD   2
  ------------------------------------------------------------------------------

     CUMULATIVE VOLUMES      L**3       RATES FOR THIS TIME STEP      L**3/T
     ------------------                 ------------------------

           IN:                                      IN:
           ---                                      ---
             STORAGE =       9.7656E-03               STORAGE =           0.0000
       CONSTANT HEAD =           0.0000         CONSTANT HEAD =           0.0000
               WELLS =           0.0000                 WELLS =           0.0000
     HEAD DEP BOUNDS =       52435.4531       HEAD DEP BOUNDS =         609.7147

            TOTAL IN =       52435.4609              TOTAL IN =         609.7147

          OUT:                                     OUT:
          ----                                     ----
             STORAGE =           0.4578               STORAGE =       5.3978E-03
       CONSTANT HEAD =           0.0000         CONSTANT HEAD =           0.0000
               WELLS =           0.0000                 WELLS =           0.0000
     HEAD DEP BOUNDS =       52433.2148       HEAD DEP BOUNDS =         609.6888

           TOTAL OUT =       52433.6719             TOTAL OUT =         609.6942

            IN - OUT =           1.7891              IN - OUT =       2.0447E-02

 PERCENT DISCREPANCY =           0.00     PERCENT DISCREPANCY =           0.00






          TIME SUMMARY AT END OF TIME STEP  85 IN STRESS PERIOD    2
                    SECONDS     MINUTES      HOURS       DAYS        YEARS
                    -----------------------------------------------------------
   TIME STEP LENGTH  86400.      1440.0      24.000      1.0000     2.73785E-03
 STRESS PERIOD TIME 7.34400E+06 1.22400E+05  2040.0      85.000     0.23272    
         TOTAL TIME 7.43040E+06 1.23840E+05  2064.0      86.000     0.23546    
1
 
 SOLVING FOR HEAD 

 OUTPUT CONTROL FOR STRESS PERIOD    2   TIME STEP  86
    SAVE HEAD FOR ALL LAYERS
    SAVE DRAWDOWN FOR ALL LAYERS
    SAVE BUDGET
    PRINT HEAD FOR ALL LAYERS
    PRINT BUDGET
 UBDSV1 SAVING "         STORAGE" ON UNIT  53 AT TIME STEP 86, STRESS PERIOD   2
 UBDSV2 SAVING "   CONSTANT HEAD" ON UNIT  53 AT TIME STEP 86, STRESS PERIOD   2
 UBDSV1 SAVING "FLOW RIGHT FACE " ON UNIT  53 AT TIME STEP 86, STRESS PERIOD   2
 UBDSV1 SAVING "FLOW FRONT FACE " ON UNIT  53 AT TIME STEP 86, STRESS PERIOD   2
1
              HEAD IN LAYER   1 AT END OF TIME STEP  86 IN STRESS PERIOD    2
  ---------------------------------------------------------------------------

            1           2           3           4           5           6           7           8           9          10
 ........................................................................................................................
   1    9.990       8.965       7.921       6.859       5.776       4.672       3.545       2.394       1.217      1.2194E-02
   2    9.990       8.965       7.921       6.859       5.776       4.672       3.545       2.394       1.217      1.2194E-02
   3    9.990       8.965       7.921       6.859       5.776       4.672       3.545       2.394       1.217      1.2194E-02
   4    9.990       8.965       7.921       6.859       5.776       4.672       3.545       2.394       1.217      1.2194E-02
   5    9.990       8.965       7.921       6.859       5.776       4.672       3.545       2.394       1.217      1.2194E-02
   6    9.990       8.965       7.921       6.859       5.776       4.672       3.545       2.394       1.217      1.2194E-02
   7    9.990       8.965       7.921       6.859       5.776       4.672       3.545       2.394       1.217      1.2194E-02
   8    9.990       8.965       7.921       6.859       5.776       4.672       3.545       2.394       1.217      1.2194E-02
   9    9.990       8.965       7.921       6.859       5.776       4.672       3.545       2.394       1.217      1.2194E-02
  10    9.990       8.965       7.921       6.859       5.776       4.672       3.545       2.394       1.217      1.2194E-02

 HEAD WILL BE SAVED ON UNIT   51 AT END OF TIME STEP  86, STRESS PERIOD    2

 DRAWDOWN WILL BE SAVED ON UNIT   52 AT END OF TIME STEP  86, STRESS PERIOD    2
1
  VOLUMETRIC BUDGET FOR ENTIRE MODEL AT END OF TIME STEP 86 IN STRESS PERIOD   2
  ------------------------------------------------------------------------------

     CUMULATIVE VOLUMES      L**3       RATES FOR THIS TIME STEP      L**3/T
     ------------------                 ------------------------

           IN:                                      IN:
           ---                                      ---
             STORAGE =       9.7656E-03               STORAGE =           0.0000
       CONSTANT HEAD =           0.0000         CONSTANT HEAD =           0.0000
               WELLS =           0.0000                 WELLS =           0.0000
     HEAD DEP BOUNDS =       53045.1680       HEAD DEP BOUNDS =         609.7147

            TOTAL IN =       53045.1797              TOTAL IN =         609.7147

          OUT:                                     OUT:
          ----                                     ----
             STORAGE =           0.4632               STORAGE =       5.3978E-03
       CONSTANT HEAD =           0.0000         CONSTANT HEAD =           0.0000
               WELLS =           0.0000                 WELLS =           0.0000
     HEAD DEP BOUNDS =       53042.9023       HEAD DEP BOUNDS =         609.6888

           TOTAL OUT =       53043.3672             TOTAL OUT =         609.6942

            IN - OUT =           1.8125              IN - OUT =       2.0447E-02

 PERCENT DISCREPANCY =           0.00     PERCENT DISCREPANCY =           0.00






          TIME SUMMARY AT END OF TIME STEP  86 IN STRESS PERIOD    2
                    SECONDS     MINUTES      HOURS       DAYS        YEARS
                    -----------------------------------------------------------
   TIME STEP LENGTH  86400.      1440.0      24.000      1.0000     2.73785E-03
 STRESS PERIOD TIME 7.43040E+06 1.23840E+05  2064.0      86.000     0.23546    
         TOTAL TIME 7.51680E+06 1.25280E+05  2088.0      87.000     0.23819    
1
 
 SOLVING FOR HEAD 

 OUTPUT CONTROL FOR STRESS PERIOD    2   TIME STEP  87
    SAVE HEAD FOR ALL LAYERS
    SAVE DRAWDOWN FOR ALL LAYERS
    SAVE BUDGET
    PRINT HEAD FOR ALL LAYERS
    PRINT BUDGET
 UBDSV1 SAVING "         STORAGE" ON UNIT  53 AT TIME STEP 87, STRESS PERIOD   2
 UBDSV2 SAVING "   CONSTANT HEAD" ON UNIT  53 AT TIME STEP 87, STRESS PERIOD   2
 UBDSV1 SAVING "FLOW RIGHT FACE " ON UNIT  53 AT TIME STEP 87, STRESS PERIOD   2
 UBDSV1 SAVING "FLOW FRONT FACE " ON UNIT  53 AT TIME STEP 87, STRESS PERIOD   2
1
              HEAD IN LAYER   1 AT END OF TIME STEP  87 IN STRESS PERIOD    2
  ---------------------------------------------------------------------------

            1           2           3           4           5           6           7           8           9          10
 ........................................................................................................................
   1    9.990       8.965       7.921       6.859       5.776       4.672       3.545       2.394       1.217      1.2194E-02
   2    9.990       8.965       7.921       6.859       5.776       4.672       3.545       2.394       1.217      1.2194E-02
   3    9.990       8.965       7.921       6.859       5.776       4.672       3.545       2.394       1.217      1.2194E-02
   4    9.990       8.965       7.921       6.859       5.776       4.672       3.545       2.394       1.217      1.2194E-02
   5    9.990       8.965       7.921       6.859       5.776       4.672       3.545       2.394       1.217      1.2194E-02
   6    9.990       8.965       7.921       6.859       5.776       4.672       3.545       2.394       1.217      1.2194E-02
   7    9.990       8.965       7.921       6.859       5.776       4.672       3.545       2.394       1.217      1.2194E-02
   8    9.990       8.965       7.921       6.859       5.776       4.672       3.545       2.394       1.217      1.2194E-02
   9    9.990       8.965       7.921       6.859       5.776       4.672       3.545       2.394       1.217      1.2194E-02
  10    9.990       8.965       7.921       6.859       5.776       4.672       3.545       2.394       1.217      1.2194E-02

 HEAD WILL BE SAVED ON UNIT   51 AT END OF TIME STEP  87, STRESS PERIOD    2

 DRAWDOWN WILL BE SAVED ON UNIT   52 AT END OF TIME STEP  87, STRESS PERIOD    2
1
  VOLUMETRIC BUDGET FOR ENTIRE MODEL AT END OF TIME STEP 87 IN STRESS PERIOD   2
  ------------------------------------------------------------------------------

     CUMULATIVE VOLUMES      L**3       RATES FOR THIS TIME STEP      L**3/T
     ------------------                 ------------------------

           IN:                                      IN:
           ---                                      ---
             STORAGE =       9.7656E-03               STORAGE =           0.0000
       CONSTANT HEAD =           0.0000         CONSTANT HEAD =           0.0000
               WELLS =           0.0000                 WELLS =           0.0000
     HEAD DEP BOUNDS =       53654.8828       HEAD DEP BOUNDS =         609.7147

            TOTAL IN =       53654.8906              TOTAL IN =         609.7147

          OUT:                                     OUT:
          ----                                     ----
             STORAGE =           0.4686               STORAGE =       5.3978E-03
       CONSTANT HEAD =           0.0000         CONSTANT HEAD =           0.0000
               WELLS =           0.0000                 WELLS =           0.0000
     HEAD DEP BOUNDS =       53652.5898       HEAD DEP BOUNDS =         609.6888

           TOTAL OUT =       53653.0586             TOTAL OUT =         609.6942

            IN - OUT =           1.8320              IN - OUT =       2.0447E-02

 PERCENT DISCREPANCY =           0.00     PERCENT DISCREPANCY =           0.00






          TIME SUMMARY AT END OF TIME STEP  87 IN STRESS PERIOD    2
                    SECONDS     MINUTES      HOURS       DAYS        YEARS
                    -----------------------------------------------------------
   TIME STEP LENGTH  86400.      1440.0      24.000      1.0000     2.73785E-03
 STRESS PERIOD TIME 7.51680E+06 1.25280E+05  2088.0      87.000     0.23819    
         TOTAL TIME 7.60320E+06 1.26720E+05  2112.0      88.000     0.24093    
1
 
 SOLVING FOR HEAD 

 OUTPUT CONTROL FOR STRESS PERIOD    2   TIME STEP  88
    SAVE HEAD FOR ALL LAYERS
    SAVE DRAWDOWN FOR ALL LAYERS
    SAVE BUDGET
    PRINT HEAD FOR ALL LAYERS
    PRINT BUDGET
 UBDSV1 SAVING "         STORAGE" ON UNIT  53 AT TIME STEP 88, STRESS PERIOD   2
 UBDSV2 SAVING "   CONSTANT HEAD" ON UNIT  53 AT TIME STEP 88, STRESS PERIOD   2
 UBDSV1 SAVING "FLOW RIGHT FACE " ON UNIT  53 AT TIME STEP 88, STRESS PERIOD   2
 UBDSV1 SAVING "FLOW FRONT FACE " ON UNIT  53 AT TIME STEP 88, STRESS PERIOD   2
1
              HEAD IN LAYER   1 AT END OF TIME STEP  88 IN STRESS PERIOD    2
  ---------------------------------------------------------------------------

            1           2           3           4           5           6           7           8           9          10
 ........................................................................................................................
   1    9.990       8.965       7.921       6.859       5.776       4.672       3.545       2.394       1.217      1.2194E-02
   2    9.990       8.965       7.921       6.859       5.776       4.672       3.545       2.394       1.217      1.2194E-02
   3    9.990       8.965       7.921       6.859       5.776       4.672       3.545       2.394       1.217      1.2194E-02
   4    9.990       8.965       7.921       6.859       5.776       4.672       3.545       2.394       1.217      1.2194E-02
   5    9.990       8.965       7.921       6.859       5.776       4.672       3.545       2.394       1.217      1.2194E-02
   6    9.990       8.965       7.921       6.859       5.776       4.672       3.545       2.394       1.217      1.2194E-02
   7    9.990       8.965       7.921       6.859       5.776       4.672       3.545       2.394       1.217      1.2194E-02
   8    9.990       8.965       7.921       6.859       5.776       4.672       3.545       2.394       1.217      1.2194E-02
   9    9.990       8.965       7.921       6.859       5.776       4.672       3.545       2.394       1.217      1.2194E-02
  10    9.990       8.965       7.921       6.859       5.776       4.672       3.545       2.394       1.217      1.2194E-02

 HEAD WILL BE SAVED ON UNIT   51 AT END OF TIME STEP  88, STRESS PERIOD    2

 DRAWDOWN WILL BE SAVED ON UNIT   52 AT END OF TIME STEP  88, STRESS PERIOD    2
1
  VOLUMETRIC BUDGET FOR ENTIRE MODEL AT END OF TIME STEP 88 IN STRESS PERIOD   2
  ------------------------------------------------------------------------------

     CUMULATIVE VOLUMES      L**3       RATES FOR THIS TIME STEP      L**3/T
     ------------------                 ------------------------

           IN:                                      IN:
           ---                                      ---
             STORAGE =       9.7656E-03               STORAGE =           0.0000
       CONSTANT HEAD =           0.0000         CONSTANT HEAD =           0.0000
               WELLS =           0.0000                 WELLS =           0.0000
     HEAD DEP BOUNDS =       54264.5977       HEAD DEP BOUNDS =         609.7147

            TOTAL IN =       54264.6094              TOTAL IN =         609.7147

          OUT:                                     OUT:
          ----                                     ----
             STORAGE =           0.4740               STORAGE =       5.3978E-03
       CONSTANT HEAD =           0.0000         CONSTANT HEAD =           0.0000
               WELLS =           0.0000                 WELLS =           0.0000
     HEAD DEP BOUNDS =       54262.2773       HEAD DEP BOUNDS =         609.6888

           TOTAL OUT =       54262.7500             TOTAL OUT =         609.6942

            IN - OUT =           1.8594              IN - OUT =       2.0447E-02

 PERCENT DISCREPANCY =           0.00     PERCENT DISCREPANCY =           0.00






          TIME SUMMARY AT END OF TIME STEP  88 IN STRESS PERIOD    2
                    SECONDS     MINUTES      HOURS       DAYS        YEARS
                    -----------------------------------------------------------
   TIME STEP LENGTH  86400.      1440.0      24.000      1.0000     2.73785E-03
 STRESS PERIOD TIME 7.60320E+06 1.26720E+05  2112.0      88.000     0.24093    
         TOTAL TIME 7.68960E+06 1.28160E+05  2136.0      89.000     0.24367    
1
 
 SOLVING FOR HEAD 

 OUTPUT CONTROL FOR STRESS PERIOD    2   TIME STEP  89
    SAVE HEAD FOR ALL LAYERS
    SAVE DRAWDOWN FOR ALL LAYERS
    SAVE BUDGET
    PRINT HEAD FOR ALL LAYERS
    PRINT BUDGET
 UBDSV1 SAVING "         STORAGE" ON UNIT  53 AT TIME STEP 89, STRESS PERIOD   2
 UBDSV2 SAVING "   CONSTANT HEAD" ON UNIT  53 AT TIME STEP 89, STRESS PERIOD   2
 UBDSV1 SAVING "FLOW RIGHT FACE " ON UNIT  53 AT TIME STEP 89, STRESS PERIOD   2
 UBDSV1 SAVING "FLOW FRONT FACE " ON UNIT  53 AT TIME STEP 89, STRESS PERIOD   2
1
              HEAD IN LAYER   1 AT END OF TIME STEP  89 IN STRESS PERIOD    2
  ---------------------------------------------------------------------------

            1           2           3           4           5           6           7           8           9          10
 ........................................................................................................................
   1    9.990       8.965       7.921       6.859       5.776       4.672       3.545       2.394       1.217      1.2194E-02
   2    9.990       8.965       7.921       6.859       5.776       4.672       3.545       2.394       1.217      1.2194E-02
   3    9.990       8.965       7.921       6.859       5.776       4.672       3.545       2.394       1.217      1.2194E-02
   4    9.990       8.965       7.921       6.859       5.776       4.672       3.545       2.394       1.217      1.2194E-02
   5    9.990       8.965       7.921       6.859       5.776       4.672       3.545       2.394       1.217      1.2194E-02
   6    9.990       8.965       7.921       6.859       5.776       4.672       3.545       2.394       1.217      1.2194E-02
   7    9.990       8.965       7.921       6.859       5.776       4.672       3.545       2.394       1.217      1.2194E-02
   8    9.990       8.965       7.921       6.859       5.776       4.672       3.545       2.394       1.217      1.2194E-02
   9    9.990       8.965       7.921       6.859       5.776       4.672       3.545       2.394       1.217      1.2194E-02
  10    9.990       8.965       7.921       6.859       5.776       4.672       3.545       2.394       1.217      1.2194E-02

 HEAD WILL BE SAVED ON UNIT   51 AT END OF TIME STEP  89, STRESS PERIOD    2

 DRAWDOWN WILL BE SAVED ON UNIT   52 AT END OF TIME STEP  89, STRESS PERIOD    2
1
  VOLUMETRIC BUDGET FOR ENTIRE MODEL AT END OF TIME STEP 89 IN STRESS PERIOD   2
  ------------------------------------------------------------------------------

     CUMULATIVE VOLUMES      L**3       RATES FOR THIS TIME STEP      L**3/T
     ------------------                 ------------------------

           IN:                                      IN:
           ---                                      ---
             STORAGE =       9.7656E-03               STORAGE =           0.0000
       CONSTANT HEAD =           0.0000         CONSTANT HEAD =           0.0000
               WELLS =           0.0000                 WELLS =           0.0000
     HEAD DEP BOUNDS =       54874.3125       HEAD DEP BOUNDS =         609.7147

            TOTAL IN =       54874.3203              TOTAL IN =         609.7147

          OUT:                                     OUT:
          ----                                     ----
             STORAGE =           0.4794               STORAGE =       5.3978E-03
       CONSTANT HEAD =           0.0000         CONSTANT HEAD =           0.0000
               WELLS =           0.0000                 WELLS =           0.0000
     HEAD DEP BOUNDS =       54871.9648       HEAD DEP BOUNDS =         609.6888

           TOTAL OUT =       54872.4453             TOTAL OUT =         609.6942

            IN - OUT =           1.8750              IN - OUT =       2.0447E-02

 PERCENT DISCREPANCY =           0.00     PERCENT DISCREPANCY =           0.00






          TIME SUMMARY AT END OF TIME STEP  89 IN STRESS PERIOD    2
                    SECONDS     MINUTES      HOURS       DAYS        YEARS
                    -----------------------------------------------------------
   TIME STEP LENGTH  86400.      1440.0      24.000      1.0000     2.73785E-03
 STRESS PERIOD TIME 7.68960E+06 1.28160E+05  2136.0      89.000     0.24367    
         TOTAL TIME 7.77600E+06 1.29600E+05  2160.0      90.000     0.24641    
1
 
 SOLVING FOR HEAD 

 OUTPUT CONTROL FOR STRESS PERIOD    2   TIME STEP  90
    SAVE HEAD FOR ALL LAYERS
    SAVE DRAWDOWN FOR ALL LAYERS
    SAVE BUDGET
    PRINT HEAD FOR ALL LAYERS
    PRINT BUDGET
 UBDSV1 SAVING "         STORAGE" ON UNIT  53 AT TIME STEP 90, STRESS PERIOD   2
 UBDSV2 SAVING "   CONSTANT HEAD" ON UNIT  53 AT TIME STEP 90, STRESS PERIOD   2
 UBDSV1 SAVING "FLOW RIGHT FACE " ON UNIT  53 AT TIME STEP 90, STRESS PERIOD   2
 UBDSV1 SAVING "FLOW FRONT FACE " ON UNIT  53 AT TIME STEP 90, STRESS PERIOD   2
1
              HEAD IN LAYER   1 AT END OF TIME STEP  90 IN STRESS PERIOD    2
  ---------------------------------------------------------------------------

            1           2           3           4           5           6           7           8           9          10
 ........................................................................................................................
   1    9.990       8.965       7.921       6.859       5.776       4.672       3.545       2.394       1.217      1.2194E-02
   2    9.990       8.965       7.921       6.859       5.776       4.672       3.545       2.394       1.217      1.2194E-02
   3    9.990       8.965       7.921       6.859       5.776       4.672       3.545       2.394       1.217      1.2194E-02
   4    9.990       8.965       7.921       6.859       5.776       4.672       3.545       2.394       1.217      1.2194E-02
   5    9.990       8.965       7.921       6.859       5.776       4.672       3.545       2.394       1.217      1.2194E-02
   6    9.990       8.965       7.921       6.859       5.776       4.672       3.545       2.394       1.217      1.2194E-02
   7    9.990       8.965       7.921       6.859       5.776       4.672       3.545       2.394       1.217      1.2194E-02
   8    9.990       8.965       7.921       6.859       5.776       4.672       3.545       2.394       1.217      1.2194E-02
   9    9.990       8.965       7.921       6.859       5.776       4.672       3.545       2.394       1.217      1.2194E-02
  10    9.990       8.965       7.921       6.859       5.776       4.672       3.545       2.394       1.217      1.2194E-02

 HEAD WILL BE SAVED ON UNIT   51 AT END OF TIME STEP  90, STRESS PERIOD    2

 DRAWDOWN WILL BE SAVED ON UNIT   52 AT END OF TIME STEP  90, STRESS PERIOD    2
1
  VOLUMETRIC BUDGET FOR ENTIRE MODEL AT END OF TIME STEP 90 IN STRESS PERIOD   2
  ------------------------------------------------------------------------------

     CUMULATIVE VOLUMES      L**3       RATES FOR THIS TIME STEP      L**3/T
     ------------------                 ------------------------

           IN:                                      IN:
           ---                                      ---
             STORAGE =       9.7656E-03               STORAGE =           0.0000
       CONSTANT HEAD =           0.0000         CONSTANT HEAD =           0.0000
               WELLS =           0.0000                 WELLS =           0.0000
     HEAD DEP BOUNDS =       55484.0273       HEAD DEP BOUNDS =         609.7147

            TOTAL IN =       55484.0391              TOTAL IN =         609.7147

          OUT:                                     OUT:
          ----                                     ----
             STORAGE =           0.4848               STORAGE =       5.3978E-03
       CONSTANT HEAD =           0.0000         CONSTANT HEAD =           0.0000
               WELLS =           0.0000                 WELLS =           0.0000
     HEAD DEP BOUNDS =       55481.6523       HEAD DEP BOUNDS =         609.6888

           TOTAL OUT =       55482.1367             TOTAL OUT =         609.6942

            IN - OUT =           1.9023              IN - OUT =       2.0447E-02

 PERCENT DISCREPANCY =           0.00     PERCENT DISCREPANCY =           0.00






          TIME SUMMARY AT END OF TIME STEP  90 IN STRESS PERIOD    2
                    SECONDS     MINUTES      HOURS       DAYS        YEARS
                    -----------------------------------------------------------
   TIME STEP LENGTH  86400.      1440.0      24.000      1.0000     2.73785E-03
 STRESS PERIOD TIME 7.77600E+06 1.29600E+05  2160.0      90.000     0.24641    
         TOTAL TIME 7.86240E+06 1.31040E+05  2184.0      91.000     0.24914    
1
 
 SOLVING FOR HEAD 

 OUTPUT CONTROL FOR STRESS PERIOD    2   TIME STEP  91
    SAVE HEAD FOR ALL LAYERS
    SAVE DRAWDOWN FOR ALL LAYERS
    SAVE BUDGET
    PRINT HEAD FOR ALL LAYERS
    PRINT BUDGET
 UBDSV1 SAVING "         STORAGE" ON UNIT  53 AT TIME STEP 91, STRESS PERIOD   2
 UBDSV2 SAVING "   CONSTANT HEAD" ON UNIT  53 AT TIME STEP 91, STRESS PERIOD   2
 UBDSV1 SAVING "FLOW RIGHT FACE " ON UNIT  53 AT TIME STEP 91, STRESS PERIOD   2
 UBDSV1 SAVING "FLOW FRONT FACE " ON UNIT  53 AT TIME STEP 91, STRESS PERIOD   2
1
              HEAD IN LAYER   1 AT END OF TIME STEP  91 IN STRESS PERIOD    2
  ---------------------------------------------------------------------------

            1           2           3           4           5           6           7           8           9          10
 ........................................................................................................................
   1    9.990       8.965       7.921       6.859       5.776       4.672       3.545       2.394       1.217      1.2194E-02
   2    9.990       8.965       7.921       6.859       5.776       4.672       3.545       2.394       1.217      1.2194E-02
   3    9.990       8.965       7.921       6.859       5.776       4.672       3.545       2.394       1.217      1.2194E-02
   4    9.990       8.965       7.921       6.859       5.776       4.672       3.545       2.394       1.217      1.2194E-02
   5    9.990       8.965       7.921       6.859       5.776       4.672       3.545       2.394       1.217      1.2194E-02
   6    9.990       8.965       7.921       6.859       5.776       4.672       3.545       2.394       1.217      1.2194E-02
   7    9.990       8.965       7.921       6.859       5.776       4.672       3.545       2.394       1.217      1.2194E-02
   8    9.990       8.965       7.921       6.859       5.776       4.672       3.545       2.394       1.217      1.2194E-02
   9    9.990       8.965       7.921       6.859       5.776       4.672       3.545       2.394       1.217      1.2194E-02
  10    9.990       8.965       7.921       6.859       5.776       4.672       3.545       2.394       1.217      1.2194E-02

 HEAD WILL BE SAVED ON UNIT   51 AT END OF TIME STEP  91, STRESS PERIOD    2

 DRAWDOWN WILL BE SAVED ON UNIT   52 AT END OF TIME STEP  91, STRESS PERIOD    2
1
  VOLUMETRIC BUDGET FOR ENTIRE MODEL AT END OF TIME STEP 91 IN STRESS PERIOD   2
  ------------------------------------------------------------------------------

     CUMULATIVE VOLUMES      L**3       RATES FOR THIS TIME STEP      L**3/T
     ------------------                 ------------------------

           IN:                                      IN:
           ---                                      ---
             STORAGE =       9.7656E-03               STORAGE =           0.0000
       CONSTANT HEAD =           0.0000         CONSTANT HEAD =           0.0000
               WELLS =           0.0000                 WELLS =           0.0000
     HEAD DEP BOUNDS =       56093.7422       HEAD DEP BOUNDS =         609.7147

            TOTAL IN =       56093.7500              TOTAL IN =         609.7147

          OUT:                                     OUT:
          ----                                     ----
             STORAGE =           0.4902               STORAGE =       5.3978E-03
       CONSTANT HEAD =           0.0000         CONSTANT HEAD =           0.0000
               WELLS =           0.0000                 WELLS =           0.0000
     HEAD DEP BOUNDS =       56091.3398       HEAD DEP BOUNDS =         609.6888

           TOTAL OUT =       56091.8281             TOTAL OUT =         609.6942

            IN - OUT =           1.9219              IN - OUT =       2.0447E-02

 PERCENT DISCREPANCY =           0.00     PERCENT DISCREPANCY =           0.00






          TIME SUMMARY AT END OF TIME STEP  91 IN STRESS PERIOD    2
                    SECONDS     MINUTES      HOURS       DAYS        YEARS
                    -----------------------------------------------------------
   TIME STEP LENGTH  86400.      1440.0      24.000      1.0000     2.73785E-03
 STRESS PERIOD TIME 7.86240E+06 1.31040E+05  2184.0      91.000     0.24914    
         TOTAL TIME 7.94880E+06 1.32480E+05  2208.0      92.000     0.25188    
1
 
 SOLVING FOR HEAD 

 OUTPUT CONTROL FOR STRESS PERIOD    2   TIME STEP  92
    SAVE HEAD FOR ALL LAYERS
    SAVE DRAWDOWN FOR ALL LAYERS
    SAVE BUDGET
    PRINT HEAD FOR ALL LAYERS
    PRINT BUDGET
 UBDSV1 SAVING "         STORAGE" ON UNIT  53 AT TIME STEP 92, STRESS PERIOD   2
 UBDSV2 SAVING "   CONSTANT HEAD" ON UNIT  53 AT TIME STEP 92, STRESS PERIOD   2
 UBDSV1 SAVING "FLOW RIGHT FACE " ON UNIT  53 AT TIME STEP 92, STRESS PERIOD   2
 UBDSV1 SAVING "FLOW FRONT FACE " ON UNIT  53 AT TIME STEP 92, STRESS PERIOD   2
1
              HEAD IN LAYER   1 AT END OF TIME STEP  92 IN STRESS PERIOD    2
  ---------------------------------------------------------------------------

            1           2           3           4           5           6           7           8           9          10
 ........................................................................................................................
   1    9.990       8.965       7.921       6.859       5.776       4.672       3.545       2.394       1.217      1.2194E-02
   2    9.990       8.965       7.921       6.859       5.776       4.672       3.545       2.394       1.217      1.2194E-02
   3    9.990       8.965       7.921       6.859       5.776       4.672       3.545       2.394       1.217      1.2194E-02
   4    9.990       8.965       7.921       6.859       5.776       4.672       3.545       2.394       1.217      1.2194E-02
   5    9.990       8.965       7.921       6.859       5.776       4.672       3.545       2.394       1.217      1.2194E-02
   6    9.990       8.965       7.921       6.859       5.776       4.672       3.545       2.394       1.217      1.2194E-02
   7    9.990       8.965       7.921       6.859       5.776       4.672       3.545       2.394       1.217      1.2194E-02
   8    9.990       8.965       7.921       6.859       5.776       4.672       3.545       2.394       1.217      1.2194E-02
   9    9.990       8.965       7.921       6.859       5.776       4.672       3.545       2.394       1.217      1.2194E-02
  10    9.990       8.965       7.921       6.859       5.776       4.672       3.545       2.394       1.217      1.2194E-02

 HEAD WILL BE SAVED ON UNIT   51 AT END OF TIME STEP  92, STRESS PERIOD    2

 DRAWDOWN WILL BE SAVED ON UNIT   52 AT END OF TIME STEP  92, STRESS PERIOD    2
1
  VOLUMETRIC BUDGET FOR ENTIRE MODEL AT END OF TIME STEP 92 IN STRESS PERIOD   2
  ------------------------------------------------------------------------------

     CUMULATIVE VOLUMES      L**3       RATES FOR THIS TIME STEP      L**3/T
     ------------------                 ------------------------

           IN:                                      IN:
           ---                                      ---
             STORAGE =       9.7656E-03               STORAGE =           0.0000
       CONSTANT HEAD =           0.0000         CONSTANT HEAD =           0.0000
               WELLS =           0.0000                 WELLS =           0.0000
     HEAD DEP BOUNDS =       56703.4570       HEAD DEP BOUNDS =         609.7147

            TOTAL IN =       56703.4688              TOTAL IN =         609.7147

          OUT:                                     OUT:
          ----                                     ----
             STORAGE =           0.4956               STORAGE =       5.3978E-03
       CONSTANT HEAD =           0.0000         CONSTANT HEAD =           0.0000
               WELLS =           0.0000                 WELLS =           0.0000
     HEAD DEP BOUNDS =       56701.0273       HEAD DEP BOUNDS =         609.6888

           TOTAL OUT =       56701.5234             TOTAL OUT =         609.6942

            IN - OUT =           1.9453              IN - OUT =       2.0447E-02

 PERCENT DISCREPANCY =           0.00     PERCENT DISCREPANCY =           0.00






          TIME SUMMARY AT END OF TIME STEP  92 IN STRESS PERIOD    2
                    SECONDS     MINUTES      HOURS       DAYS        YEARS
                    -----------------------------------------------------------
   TIME STEP LENGTH  86400.      1440.0      24.000      1.0000     2.73785E-03
 STRESS PERIOD TIME 7.94880E+06 1.32480E+05  2208.0      92.000     0.25188    
         TOTAL TIME 8.03520E+06 1.33920E+05  2232.0      93.000     0.25462    
1
 
 SOLVING FOR HEAD 

 OUTPUT CONTROL FOR STRESS PERIOD    2   TIME STEP  93
    SAVE HEAD FOR ALL LAYERS
    SAVE DRAWDOWN FOR ALL LAYERS
    SAVE BUDGET
    PRINT HEAD FOR ALL LAYERS
    PRINT BUDGET
 UBDSV1 SAVING "         STORAGE" ON UNIT  53 AT TIME STEP 93, STRESS PERIOD   2
 UBDSV2 SAVING "   CONSTANT HEAD" ON UNIT  53 AT TIME STEP 93, STRESS PERIOD   2
 UBDSV1 SAVING "FLOW RIGHT FACE " ON UNIT  53 AT TIME STEP 93, STRESS PERIOD   2
 UBDSV1 SAVING "FLOW FRONT FACE " ON UNIT  53 AT TIME STEP 93, STRESS PERIOD   2
1
              HEAD IN LAYER   1 AT END OF TIME STEP  93 IN STRESS PERIOD    2
  ---------------------------------------------------------------------------

            1           2           3           4           5           6           7           8           9          10
 ........................................................................................................................
   1    9.990       8.965       7.921       6.859       5.776       4.672       3.545       2.394       1.217      1.2194E-02
   2    9.990       8.965       7.921       6.859       5.776       4.672       3.545       2.394       1.217      1.2194E-02
   3    9.990       8.965       7.921       6.859       5.776       4.672       3.545       2.394       1.217      1.2194E-02
   4    9.990       8.965       7.921       6.859       5.776       4.672       3.545       2.394       1.217      1.2194E-02
   5    9.990       8.965       7.921       6.859       5.776       4.672       3.545       2.394       1.217      1.2194E-02
   6    9.990       8.965       7.921       6.859       5.776       4.672       3.545       2.394       1.217      1.2194E-02
   7    9.990       8.965       7.921       6.859       5.776       4.672       3.545       2.394       1.217      1.2194E-02
   8    9.990       8.965       7.921       6.859       5.776       4.672       3.545       2.394       1.217      1.2194E-02
   9    9.990       8.965       7.921       6.859       5.776       4.672       3.545       2.394       1.217      1.2194E-02
  10    9.990       8.965       7.921       6.859       5.776       4.672       3.545       2.394       1.217      1.2194E-02

 HEAD WILL BE SAVED ON UNIT   51 AT END OF TIME STEP  93, STRESS PERIOD    2

 DRAWDOWN WILL BE SAVED ON UNIT   52 AT END OF TIME STEP  93, STRESS PERIOD    2
1
  VOLUMETRIC BUDGET FOR ENTIRE MODEL AT END OF TIME STEP 93 IN STRESS PERIOD   2
  ------------------------------------------------------------------------------

     CUMULATIVE VOLUMES      L**3       RATES FOR THIS TIME STEP      L**3/T
     ------------------                 ------------------------

           IN:                                      IN:
           ---                                      ---
             STORAGE =       9.7656E-03               STORAGE =           0.0000
       CONSTANT HEAD =           0.0000         CONSTANT HEAD =           0.0000
               WELLS =           0.0000                 WELLS =           0.0000
     HEAD DEP BOUNDS =       57313.1719       HEAD DEP BOUNDS =         609.7147

            TOTAL IN =       57313.1797              TOTAL IN =         609.7147

          OUT:                                     OUT:
          ----                                     ----
             STORAGE =           0.5010               STORAGE =       5.3978E-03
       CONSTANT HEAD =           0.0000         CONSTANT HEAD =           0.0000
               WELLS =           0.0000                 WELLS =           0.0000
     HEAD DEP BOUNDS =       57310.7148       HEAD DEP BOUNDS =         609.6888

           TOTAL OUT =       57311.2148             TOTAL OUT =         609.6942

            IN - OUT =           1.9648              IN - OUT =       2.0447E-02

 PERCENT DISCREPANCY =           0.00     PERCENT DISCREPANCY =           0.00






          TIME SUMMARY AT END OF TIME STEP  93 IN STRESS PERIOD    2
                    SECONDS     MINUTES      HOURS       DAYS        YEARS
                    -----------------------------------------------------------
   TIME STEP LENGTH  86400.      1440.0      24.000      1.0000     2.73785E-03
 STRESS PERIOD TIME 8.03520E+06 1.33920E+05  2232.0      93.000     0.25462    
         TOTAL TIME 8.12160E+06 1.35360E+05  2256.0      94.000     0.25736    
1
 
 SOLVING FOR HEAD 

 OUTPUT CONTROL FOR STRESS PERIOD    2   TIME STEP  94
    SAVE HEAD FOR ALL LAYERS
    SAVE DRAWDOWN FOR ALL LAYERS
    SAVE BUDGET
    PRINT HEAD FOR ALL LAYERS
    PRINT BUDGET
 UBDSV1 SAVING "         STORAGE" ON UNIT  53 AT TIME STEP 94, STRESS PERIOD   2
 UBDSV2 SAVING "   CONSTANT HEAD" ON UNIT  53 AT TIME STEP 94, STRESS PERIOD   2
 UBDSV1 SAVING "FLOW RIGHT FACE " ON UNIT  53 AT TIME STEP 94, STRESS PERIOD   2
 UBDSV1 SAVING "FLOW FRONT FACE " ON UNIT  53 AT TIME STEP 94, STRESS PERIOD   2
1
              HEAD IN LAYER   1 AT END OF TIME STEP  94 IN STRESS PERIOD    2
  ---------------------------------------------------------------------------

            1           2           3           4           5           6           7           8           9          10
 ........................................................................................................................
   1    9.990       8.965       7.921       6.859       5.776       4.672       3.545       2.394       1.217      1.2194E-02
   2    9.990       8.965       7.921       6.859       5.776       4.672       3.545       2.394       1.217      1.2194E-02
   3    9.990       8.965       7.921       6.859       5.776       4.672       3.545       2.394       1.217      1.2194E-02
   4    9.990       8.965       7.921       6.859       5.776       4.672       3.545       2.394       1.217      1.2194E-02
   5    9.990       8.965       7.921       6.859       5.776       4.672       3.545       2.394       1.217      1.2194E-02
   6    9.990       8.965       7.921       6.859       5.776       4.672       3.545       2.394       1.217      1.2194E-02
   7    9.990       8.965       7.921       6.859       5.776       4.672       3.545       2.394       1.217      1.2194E-02
   8    9.990       8.965       7.921       6.859       5.776       4.672       3.545       2.394       1.217      1.2194E-02
   9    9.990       8.965       7.921       6.859       5.776       4.672       3.545       2.394       1.217      1.2194E-02
  10    9.990       8.965       7.921       6.859       5.776       4.672       3.545       2.394       1.217      1.2194E-02

 HEAD WILL BE SAVED ON UNIT   51 AT END OF TIME STEP  94, STRESS PERIOD    2

 DRAWDOWN WILL BE SAVED ON UNIT   52 AT END OF TIME STEP  94, STRESS PERIOD    2
1
  VOLUMETRIC BUDGET FOR ENTIRE MODEL AT END OF TIME STEP 94 IN STRESS PERIOD   2
  ------------------------------------------------------------------------------

     CUMULATIVE VOLUMES      L**3       RATES FOR THIS TIME STEP      L**3/T
     ------------------                 ------------------------

           IN:                                      IN:
           ---                                      ---
             STORAGE =       9.7656E-03               STORAGE =           0.0000
       CONSTANT HEAD =           0.0000         CONSTANT HEAD =           0.0000
               WELLS =           0.0000                 WELLS =           0.0000
     HEAD DEP BOUNDS =       57922.8867       HEAD DEP BOUNDS =         609.7147

            TOTAL IN =       57922.8984              TOTAL IN =         609.7147

          OUT:                                     OUT:
          ----                                     ----
             STORAGE =           0.5064               STORAGE =       5.3978E-03
       CONSTANT HEAD =           0.0000         CONSTANT HEAD =           0.0000
               WELLS =           0.0000                 WELLS =           0.0000
     HEAD DEP BOUNDS =       57920.4023       HEAD DEP BOUNDS =         609.6888

           TOTAL OUT =       57920.9102             TOTAL OUT =         609.6942

            IN - OUT =           1.9883              IN - OUT =       2.0447E-02

 PERCENT DISCREPANCY =           0.00     PERCENT DISCREPANCY =           0.00






          TIME SUMMARY AT END OF TIME STEP  94 IN STRESS PERIOD    2
                    SECONDS     MINUTES      HOURS       DAYS        YEARS
                    -----------------------------------------------------------
   TIME STEP LENGTH  86400.      1440.0      24.000      1.0000     2.73785E-03
 STRESS PERIOD TIME 8.12160E+06 1.35360E+05  2256.0      94.000     0.25736    
         TOTAL TIME 8.20800E+06 1.36800E+05  2280.0      95.000     0.26010    
1
 
 SOLVING FOR HEAD 

 OUTPUT CONTROL FOR STRESS PERIOD    2   TIME STEP  95
    SAVE HEAD FOR ALL LAYERS
    SAVE DRAWDOWN FOR ALL LAYERS
    SAVE BUDGET
    PRINT HEAD FOR ALL LAYERS
    PRINT BUDGET
 UBDSV1 SAVING "         STORAGE" ON UNIT  53 AT TIME STEP 95, STRESS PERIOD   2
 UBDSV2 SAVING "   CONSTANT HEAD" ON UNIT  53 AT TIME STEP 95, STRESS PERIOD   2
 UBDSV1 SAVING "FLOW RIGHT FACE " ON UNIT  53 AT TIME STEP 95, STRESS PERIOD   2
 UBDSV1 SAVING "FLOW FRONT FACE " ON UNIT  53 AT TIME STEP 95, STRESS PERIOD   2
1
              HEAD IN LAYER   1 AT END OF TIME STEP  95 IN STRESS PERIOD    2
  ---------------------------------------------------------------------------

            1           2           3           4           5           6           7           8           9          10
 ........................................................................................................................
   1    9.990       8.965       7.921       6.859       5.776       4.672       3.545       2.394       1.217      1.2194E-02
   2    9.990       8.965       7.921       6.859       5.776       4.672       3.545       2.394       1.217      1.2194E-02
   3    9.990       8.965       7.921       6.859       5.776       4.672       3.545       2.394       1.217      1.2194E-02
   4    9.990       8.965       7.921       6.859       5.776       4.672       3.545       2.394       1.217      1.2194E-02
   5    9.990       8.965       7.921       6.859       5.776       4.672       3.545       2.394       1.217      1.2194E-02
   6    9.990       8.965       7.921       6.859       5.776       4.672       3.545       2.394       1.217      1.2194E-02
   7    9.990       8.965       7.921       6.859       5.776       4.672       3.545       2.394       1.217      1.2194E-02
   8    9.990       8.965       7.921       6.859       5.776       4.672       3.545       2.394       1.217      1.2194E-02
   9    9.990       8.965       7.921       6.859       5.776       4.672       3.545       2.394       1.217      1.2194E-02
  10    9.990       8.965       7.921       6.859       5.776       4.672       3.545       2.394       1.217      1.2194E-02

 HEAD WILL BE SAVED ON UNIT   51 AT END OF TIME STEP  95, STRESS PERIOD    2

 DRAWDOWN WILL BE SAVED ON UNIT   52 AT END OF TIME STEP  95, STRESS PERIOD    2
1
  VOLUMETRIC BUDGET FOR ENTIRE MODEL AT END OF TIME STEP 95 IN STRESS PERIOD   2
  ------------------------------------------------------------------------------

     CUMULATIVE VOLUMES      L**3       RATES FOR THIS TIME STEP      L**3/T
     ------------------                 ------------------------

           IN:                                      IN:
           ---                                      ---
             STORAGE =       9.7656E-03               STORAGE =           0.0000
       CONSTANT HEAD =           0.0000         CONSTANT HEAD =           0.0000
               WELLS =           0.0000                 WELLS =           0.0000
     HEAD DEP BOUNDS =       58532.6016       HEAD DEP BOUNDS =         609.7147

            TOTAL IN =       58532.6094              TOTAL IN =         609.7147

          OUT:                                     OUT:
          ----                                     ----
             STORAGE =           0.5118               STORAGE =       5.3978E-03
       CONSTANT HEAD =           0.0000         CONSTANT HEAD =           0.0000
               WELLS =           0.0000                 WELLS =           0.0000
     HEAD DEP BOUNDS =       58530.0898       HEAD DEP BOUNDS =         609.6888

           TOTAL OUT =       58530.6016             TOTAL OUT =         609.6942

            IN - OUT =           2.0078              IN - OUT =       2.0447E-02

 PERCENT DISCREPANCY =           0.00     PERCENT DISCREPANCY =           0.00






          TIME SUMMARY AT END OF TIME STEP  95 IN STRESS PERIOD    2
                    SECONDS     MINUTES      HOURS       DAYS        YEARS
                    -----------------------------------------------------------
   TIME STEP LENGTH  86400.      1440.0      24.000      1.0000     2.73785E-03
 STRESS PERIOD TIME 8.20800E+06 1.36800E+05  2280.0      95.000     0.26010    
         TOTAL TIME 8.29440E+06 1.38240E+05  2304.0      96.000     0.26283    
1
 
 SOLVING FOR HEAD 

 OUTPUT CONTROL FOR STRESS PERIOD    2   TIME STEP  96
    SAVE HEAD FOR ALL LAYERS
    SAVE DRAWDOWN FOR ALL LAYERS
    SAVE BUDGET
    PRINT HEAD FOR ALL LAYERS
    PRINT BUDGET
 UBDSV1 SAVING "         STORAGE" ON UNIT  53 AT TIME STEP 96, STRESS PERIOD   2
 UBDSV2 SAVING "   CONSTANT HEAD" ON UNIT  53 AT TIME STEP 96, STRESS PERIOD   2
 UBDSV1 SAVING "FLOW RIGHT FACE " ON UNIT  53 AT TIME STEP 96, STRESS PERIOD   2
 UBDSV1 SAVING "FLOW FRONT FACE " ON UNIT  53 AT TIME STEP 96, STRESS PERIOD   2
1
              HEAD IN LAYER   1 AT END OF TIME STEP  96 IN STRESS PERIOD    2
  ---------------------------------------------------------------------------

            1           2           3           4           5           6           7           8           9          10
 ........................................................................................................................
   1    9.990       8.965       7.921       6.859       5.776       4.672       3.545       2.394       1.217      1.2194E-02
   2    9.990       8.965       7.921       6.859       5.776       4.672       3.545       2.394       1.217      1.2194E-02
   3    9.990       8.965       7.921       6.859       5.776       4.672       3.545       2.394       1.217      1.2194E-02
   4    9.990       8.965       7.921       6.859       5.776       4.672       3.545       2.394       1.217      1.2194E-02
   5    9.990       8.965       7.921       6.859       5.776       4.672       3.545       2.394       1.217      1.2194E-02
   6    9.990       8.965       7.921       6.859       5.776       4.672       3.545       2.394       1.217      1.2194E-02
   7    9.990       8.965       7.921       6.859       5.776       4.672       3.545       2.394       1.217      1.2194E-02
   8    9.990       8.965       7.921       6.859       5.776       4.672       3.545       2.394       1.217      1.2194E-02
   9    9.990       8.965       7.921       6.859       5.776       4.672       3.545       2.394       1.217      1.2194E-02
  10    9.990       8.965       7.921       6.859       5.776       4.672       3.545       2.394       1.217      1.2194E-02

 HEAD WILL BE SAVED ON UNIT   51 AT END OF TIME STEP  96, STRESS PERIOD    2

 DRAWDOWN WILL BE SAVED ON UNIT   52 AT END OF TIME STEP  96, STRESS PERIOD    2
1
  VOLUMETRIC BUDGET FOR ENTIRE MODEL AT END OF TIME STEP 96 IN STRESS PERIOD   2
  ------------------------------------------------------------------------------

     CUMULATIVE VOLUMES      L**3       RATES FOR THIS TIME STEP      L**3/T
     ------------------                 ------------------------

           IN:                                      IN:
           ---                                      ---
             STORAGE =       9.7656E-03               STORAGE =           0.0000
       CONSTANT HEAD =           0.0000         CONSTANT HEAD =           0.0000
               WELLS =           0.0000                 WELLS =           0.0000
     HEAD DEP BOUNDS =       59142.3164       HEAD DEP BOUNDS =         609.7147

            TOTAL IN =       59142.3281              TOTAL IN =         609.7147

          OUT:                                     OUT:
          ----                                     ----
             STORAGE =           0.5172               STORAGE =       5.3978E-03
       CONSTANT HEAD =           0.0000         CONSTANT HEAD =           0.0000
               WELLS =           0.0000                 WELLS =           0.0000
     HEAD DEP BOUNDS =       59139.7773       HEAD DEP BOUNDS =         609.6888

           TOTAL OUT =       59140.2930             TOTAL OUT =         609.6942

            IN - OUT =           2.0352              IN - OUT =       2.0447E-02

 PERCENT DISCREPANCY =           0.00     PERCENT DISCREPANCY =           0.00






          TIME SUMMARY AT END OF TIME STEP  96 IN STRESS PERIOD    2
                    SECONDS     MINUTES      HOURS       DAYS        YEARS
                    -----------------------------------------------------------
   TIME STEP LENGTH  86400.      1440.0      24.000      1.0000     2.73785E-03
 STRESS PERIOD TIME 8.29440E+06 1.38240E+05  2304.0      96.000     0.26283    
         TOTAL TIME 8.38080E+06 1.39680E+05  2328.0      97.000     0.26557    
1
 
 SOLVING FOR HEAD 

 OUTPUT CONTROL FOR STRESS PERIOD    2   TIME STEP  97
    SAVE HEAD FOR ALL LAYERS
    SAVE DRAWDOWN FOR ALL LAYERS
    SAVE BUDGET
    PRINT HEAD FOR ALL LAYERS
    PRINT BUDGET
 UBDSV1 SAVING "         STORAGE" ON UNIT  53 AT TIME STEP 97, STRESS PERIOD   2
 UBDSV2 SAVING "   CONSTANT HEAD" ON UNIT  53 AT TIME STEP 97, STRESS PERIOD   2
 UBDSV1 SAVING "FLOW RIGHT FACE " ON UNIT  53 AT TIME STEP 97, STRESS PERIOD   2
 UBDSV1 SAVING "FLOW FRONT FACE " ON UNIT  53 AT TIME STEP 97, STRESS PERIOD   2
1
              HEAD IN LAYER   1 AT END OF TIME STEP  97 IN STRESS PERIOD    2
  ---------------------------------------------------------------------------

            1           2           3           4           5           6           7           8           9          10
 ........................................................................................................................
   1    9.990       8.965       7.921       6.859       5.776       4.672       3.545       2.394       1.217      1.2194E-02
   2    9.990       8.965       7.921       6.859       5.776       4.672       3.545       2.394       1.217      1.2194E-02
   3    9.990       8.965       7.921       6.859       5.776       4.672       3.545       2.394       1.217      1.2194E-02
   4    9.990       8.965       7.921       6.859       5.776       4.672       3.545       2.394       1.217      1.2194E-02
   5    9.990       8.965       7.921       6.859       5.776       4.672       3.545       2.394       1.217      1.2194E-02
   6    9.990       8.965       7.921       6.859       5.776       4.672       3.545       2.394       1.217      1.2194E-02
   7    9.990       8.965       7.921       6.859       5.776       4.672       3.545       2.394       1.217      1.2194E-02
   8    9.990       8.965       7.921       6.859       5.776       4.672       3.545       2.394       1.217      1.2194E-02
   9    9.990       8.965       7.921       6.859       5.776       4.672       3.545       2.394       1.217      1.2194E-02
  10    9.990       8.965       7.921       6.859       5.776       4.672       3.545       2.394       1.217      1.2194E-02

 HEAD WILL BE SAVED ON UNIT   51 AT END OF TIME STEP  97, STRESS PERIOD    2

 DRAWDOWN WILL BE SAVED ON UNIT   52 AT END OF TIME STEP  97, STRESS PERIOD    2
1
  VOLUMETRIC BUDGET FOR ENTIRE MODEL AT END OF TIME STEP 97 IN STRESS PERIOD   2
  ------------------------------------------------------------------------------

     CUMULATIVE VOLUMES      L**3       RATES FOR THIS TIME STEP      L**3/T
     ------------------                 ------------------------

           IN:                                      IN:
           ---                                      ---
             STORAGE =       9.7656E-03               STORAGE =           0.0000
       CONSTANT HEAD =           0.0000         CONSTANT HEAD =           0.0000
               WELLS =           0.0000                 WELLS =           0.0000
     HEAD DEP BOUNDS =       59752.0312       HEAD DEP BOUNDS =         609.7147

            TOTAL IN =       59752.0391              TOTAL IN =         609.7147

          OUT:                                     OUT:
          ----                                     ----
             STORAGE =           0.5226               STORAGE =       5.3978E-03
       CONSTANT HEAD =           0.0000         CONSTANT HEAD =           0.0000
               WELLS =           0.0000                 WELLS =           0.0000
     HEAD DEP BOUNDS =       59749.4648       HEAD DEP BOUNDS =         609.6888

           TOTAL OUT =       59749.9883             TOTAL OUT =         609.6942

            IN - OUT =           2.0508              IN - OUT =       2.0447E-02

 PERCENT DISCREPANCY =           0.00     PERCENT DISCREPANCY =           0.00






          TIME SUMMARY AT END OF TIME STEP  97 IN STRESS PERIOD    2
                    SECONDS     MINUTES      HOURS       DAYS        YEARS
                    -----------------------------------------------------------
   TIME STEP LENGTH  86400.      1440.0      24.000      1.0000     2.73785E-03
 STRESS PERIOD TIME 8.38080E+06 1.39680E+05  2328.0      97.000     0.26557    
         TOTAL TIME 8.46720E+06 1.41120E+05  2352.0      98.000     0.26831    
1
 
 SOLVING FOR HEAD 

 OUTPUT CONTROL FOR STRESS PERIOD    2   TIME STEP  98
    SAVE HEAD FOR ALL LAYERS
    SAVE DRAWDOWN FOR ALL LAYERS
    SAVE BUDGET
    PRINT HEAD FOR ALL LAYERS
    PRINT BUDGET
 UBDSV1 SAVING "         STORAGE" ON UNIT  53 AT TIME STEP 98, STRESS PERIOD   2
 UBDSV2 SAVING "   CONSTANT HEAD" ON UNIT  53 AT TIME STEP 98, STRESS PERIOD   2
 UBDSV1 SAVING "FLOW RIGHT FACE " ON UNIT  53 AT TIME STEP 98, STRESS PERIOD   2
 UBDSV1 SAVING "FLOW FRONT FACE " ON UNIT  53 AT TIME STEP 98, STRESS PERIOD   2
1
              HEAD IN LAYER   1 AT END OF TIME STEP  98 IN STRESS PERIOD    2
  ---------------------------------------------------------------------------

            1           2           3           4           5           6           7           8           9          10
 ........................................................................................................................
   1    9.990       8.965       7.921       6.859       5.776       4.672       3.545       2.394       1.217      1.2194E-02
   2    9.990       8.965       7.921       6.859       5.776       4.672       3.545       2.394       1.217      1.2194E-02
   3    9.990       8.965       7.921       6.859       5.776       4.672       3.545       2.394       1.217      1.2194E-02
   4    9.990       8.965       7.921       6.859       5.776       4.672       3.545       2.394       1.217      1.2194E-02
   5    9.990       8.965       7.921       6.859       5.776       4.672       3.545       2.394       1.217      1.2194E-02
   6    9.990       8.965       7.921       6.859       5.776       4.672       3.545       2.394       1.217      1.2194E-02
   7    9.990       8.965       7.921       6.859       5.776       4.672       3.545       2.394       1.217      1.2194E-02
   8    9.990       8.965       7.921       6.859       5.776       4.672       3.545       2.394       1.217      1.2194E-02
   9    9.990       8.965       7.921       6.859       5.776       4.672       3.545       2.394       1.217      1.2194E-02
  10    9.990       8.965       7.921       6.859       5.776       4.672       3.545       2.394       1.217      1.2194E-02

 HEAD WILL BE SAVED ON UNIT   51 AT END OF TIME STEP  98, STRESS PERIOD    2

 DRAWDOWN WILL BE SAVED ON UNIT   52 AT END OF TIME STEP  98, STRESS PERIOD    2
1
  VOLUMETRIC BUDGET FOR ENTIRE MODEL AT END OF TIME STEP 98 IN STRESS PERIOD   2
  ------------------------------------------------------------------------------

     CUMULATIVE VOLUMES      L**3       RATES FOR THIS TIME STEP      L**3/T
     ------------------                 ------------------------

           IN:                                      IN:
           ---                                      ---
             STORAGE =       9.7656E-03               STORAGE =           0.0000
       CONSTANT HEAD =           0.0000         CONSTANT HEAD =           0.0000
               WELLS =           0.0000                 WELLS =           0.0000
     HEAD DEP BOUNDS =       60361.7461       HEAD DEP BOUNDS =         609.7147

            TOTAL IN =       60361.7578              TOTAL IN =         609.7147

          OUT:                                     OUT:
          ----                                     ----
             STORAGE =           0.5280               STORAGE =       5.3978E-03
       CONSTANT HEAD =           0.0000         CONSTANT HEAD =           0.0000
               WELLS =           0.0000                 WELLS =           0.0000
     HEAD DEP BOUNDS =       60359.1523       HEAD DEP BOUNDS =         609.6888

           TOTAL OUT =       60359.6797             TOTAL OUT =         609.6942

            IN - OUT =           2.0781              IN - OUT =       2.0447E-02

 PERCENT DISCREPANCY =           0.00     PERCENT DISCREPANCY =           0.00






          TIME SUMMARY AT END OF TIME STEP  98 IN STRESS PERIOD    2
                    SECONDS     MINUTES      HOURS       DAYS        YEARS
                    -----------------------------------------------------------
   TIME STEP LENGTH  86400.      1440.0      24.000      1.0000     2.73785E-03
 STRESS PERIOD TIME 8.46720E+06 1.41120E+05  2352.0      98.000     0.26831    
         TOTAL TIME 8.55360E+06 1.42560E+05  2376.0      99.000     0.27105    
1
 
 SOLVING FOR HEAD 

 OUTPUT CONTROL FOR STRESS PERIOD    2   TIME STEP  99
    SAVE HEAD FOR ALL LAYERS
    SAVE DRAWDOWN FOR ALL LAYERS
    SAVE BUDGET
    PRINT HEAD FOR ALL LAYERS
    PRINT BUDGET
 UBDSV1 SAVING "         STORAGE" ON UNIT  53 AT TIME STEP 99, STRESS PERIOD   2
 UBDSV2 SAVING "   CONSTANT HEAD" ON UNIT  53 AT TIME STEP 99, STRESS PERIOD   2
 UBDSV1 SAVING "FLOW RIGHT FACE " ON UNIT  53 AT TIME STEP 99, STRESS PERIOD   2
 UBDSV1 SAVING "FLOW FRONT FACE " ON UNIT  53 AT TIME STEP 99, STRESS PERIOD   2
1
              HEAD IN LAYER   1 AT END OF TIME STEP  99 IN STRESS PERIOD    2
  ---------------------------------------------------------------------------

            1           2           3           4           5           6           7           8           9          10
 ........................................................................................................................
   1    9.990       8.965       7.921       6.859       5.776       4.672       3.545       2.394       1.217      1.2194E-02
   2    9.990       8.965       7.921       6.859       5.776       4.672       3.545       2.394       1.217      1.2194E-02
   3    9.990       8.965       7.921       6.859       5.776       4.672       3.545       2.394       1.217      1.2194E-02
   4    9.990       8.965       7.921       6.859       5.776       4.672       3.545       2.394       1.217      1.2194E-02
   5    9.990       8.965       7.921       6.859       5.776       4.672       3.545       2.394       1.217      1.2194E-02
   6    9.990       8.965       7.921       6.859       5.776       4.672       3.545       2.394       1.217      1.2194E-02
   7    9.990       8.965       7.921       6.859       5.776       4.672       3.545       2.394       1.217      1.2194E-02
   8    9.990       8.965       7.921       6.859       5.776       4.672       3.545       2.394       1.217      1.2194E-02
   9    9.990       8.965       7.921       6.859       5.776       4.672       3.545       2.394       1.217      1.2194E-02
  10    9.990       8.965       7.921       6.859       5.776       4.672       3.545       2.394       1.217      1.2194E-02

 HEAD WILL BE SAVED ON UNIT   51 AT END OF TIME STEP  99, STRESS PERIOD    2

 DRAWDOWN WILL BE SAVED ON UNIT   52 AT END OF TIME STEP  99, STRESS PERIOD    2
1
  VOLUMETRIC BUDGET FOR ENTIRE MODEL AT END OF TIME STEP 99 IN STRESS PERIOD   2
  ------------------------------------------------------------------------------

     CUMULATIVE VOLUMES      L**3       RATES FOR THIS TIME STEP      L**3/T
     ------------------                 ------------------------

           IN:                                      IN:
           ---                                      ---
             STORAGE =       9.7656E-03               STORAGE =           0.0000
       CONSTANT HEAD =           0.0000         CONSTANT HEAD =           0.0000
               WELLS =           0.0000                 WELLS =           0.0000
     HEAD DEP BOUNDS =       60971.4609       HEAD DEP BOUNDS =         609.7147

            TOTAL IN =       60971.4688              TOTAL IN =         609.7147

          OUT:                                     OUT:
          ----                                     ----
             STORAGE =           0.5334               STORAGE =       5.3978E-03
       CONSTANT HEAD =           0.0000         CONSTANT HEAD =           0.0000
               WELLS =           0.0000                 WELLS =           0.0000
     HEAD DEP BOUNDS =       60968.8398       HEAD DEP BOUNDS =         609.6888

           TOTAL OUT =       60969.3750             TOTAL OUT =         609.6942

            IN - OUT =           2.0938              IN - OUT =       2.0447E-02

 PERCENT DISCREPANCY =           0.00     PERCENT DISCREPANCY =           0.00






          TIME SUMMARY AT END OF TIME STEP  99 IN STRESS PERIOD    2
                    SECONDS     MINUTES      HOURS       DAYS        YEARS
                    -----------------------------------------------------------
   TIME STEP LENGTH  86400.      1440.0      24.000      1.0000     2.73785E-03
 STRESS PERIOD TIME 8.55360E+06 1.42560E+05  2376.0      99.000     0.27105    
         TOTAL TIME 8.64000E+06 1.44000E+05  2400.0      100.00     0.27379    
1
 
 SOLVING FOR HEAD 

 OUTPUT CONTROL FOR STRESS PERIOD    2   TIME STEP 100
    SAVE HEAD FOR ALL LAYERS
    SAVE DRAWDOWN FOR ALL LAYERS
    SAVE BUDGET
    PRINT HEAD FOR ALL LAYERS
    PRINT BUDGET
 UBDSV1 SAVING "         STORAGE" ON UNIT  53 AT TIME STEP100, STRESS PERIOD   2
 UBDSV2 SAVING "   CONSTANT HEAD" ON UNIT  53 AT TIME STEP100, STRESS PERIOD   2
 UBDSV1 SAVING "FLOW RIGHT FACE " ON UNIT  53 AT TIME STEP100, STRESS PERIOD   2
 UBDSV1 SAVING "FLOW FRONT FACE " ON UNIT  53 AT TIME STEP100, STRESS PERIOD   2
1
              HEAD IN LAYER   1 AT END OF TIME STEP 100 IN STRESS PERIOD    2
  ---------------------------------------------------------------------------

            1           2           3           4           5           6           7           8           9          10
 ........................................................................................................................
   1    9.990       8.965       7.921       6.859       5.776       4.672       3.545       2.394       1.217      1.2194E-02
   2    9.990       8.965       7.921       6.859       5.776       4.672       3.545       2.394       1.217      1.2194E-02
   3    9.990       8.965       7.921       6.859       5.776       4.672       3.545       2.394       1.217      1.2194E-02
   4    9.990       8.965       7.921       6.859       5.776       4.672       3.545       2.394       1.217      1.2194E-02
   5    9.990       8.965       7.921       6.859       5.776       4.672       3.545       2.394       1.217      1.2194E-02
   6    9.990       8.965       7.921       6.859       5.776       4.672       3.545       2.394       1.217      1.2194E-02
   7    9.990       8.965       7.921       6.859       5.776       4.672       3.545       2.394       1.217      1.2194E-02
   8    9.990       8.965       7.921       6.859       5.776       4.672       3.545       2.394       1.217      1.2194E-02
   9    9.990       8.965       7.921       6.859       5.776       4.672       3.545       2.394       1.217      1.2194E-02
  10    9.990       8.965       7.921       6.859       5.776       4.672       3.545       2.394       1.217      1.2194E-02

 HEAD WILL BE SAVED ON UNIT   51 AT END OF TIME STEP 100, STRESS PERIOD    2

 DRAWDOWN WILL BE SAVED ON UNIT   52 AT END OF TIME STEP 100, STRESS PERIOD    2
1
  VOLUMETRIC BUDGET FOR ENTIRE MODEL AT END OF TIME STEP100 IN STRESS PERIOD   2
  ------------------------------------------------------------------------------

     CUMULATIVE VOLUMES      L**3       RATES FOR THIS TIME STEP      L**3/T
     ------------------                 ------------------------

           IN:                                      IN:
           ---                                      ---
             STORAGE =       9.7656E-03               STORAGE =           0.0000
       CONSTANT HEAD =           0.0000         CONSTANT HEAD =           0.0000
               WELLS =           0.0000                 WELLS =           0.0000
     HEAD DEP BOUNDS =       61581.1758       HEAD DEP BOUNDS =         609.7147

            TOTAL IN =       61581.1875              TOTAL IN =         609.7147

          OUT:                                     OUT:
          ----                                     ----
             STORAGE =           0.5388               STORAGE =       5.3978E-03
       CONSTANT HEAD =           0.0000         CONSTANT HEAD =           0.0000
               WELLS =           0.0000                 WELLS =           0.0000
     HEAD DEP BOUNDS =       61578.5273       HEAD DEP BOUNDS =         609.6888

           TOTAL OUT =       61579.0664             TOTAL OUT =         609.6942

            IN - OUT =           2.1211              IN - OUT =       2.0447E-02

 PERCENT DISCREPANCY =           0.00     PERCENT DISCREPANCY =           0.00






          TIME SUMMARY AT END OF TIME STEP 100 IN STRESS PERIOD    2
                    SECONDS     MINUTES      HOURS       DAYS        YEARS
                    -----------------------------------------------------------
   TIME STEP LENGTH  86400.      1440.0      24.000      1.0000     2.73785E-03
 STRESS PERIOD TIME 8.64000E+06 1.44000E+05  2400.0      100.00     0.27379    
         TOTAL TIME 8.72640E+06 1.45440E+05  2424.0      101.00     0.27652    
1
1
                            STRESS PERIOD NO.    3, LENGTH =   100.0000    
                            -----------------------------------------------

                              NUMBER OF TIME STEPS =   100

                               MULTIPLIER FOR DELT =     1.000

                            INITIAL TIME STEP SIZE =   1.000000    

 WELL NO.  LAYER   ROW   COL   STRESS RATE         
 --------------------------------------------------
      1      1      5      5      -300.0    

      1 WELL 

 REUSING NON-PARAMETER GHB CELLS FROM LAST STRESS PERIOD

     20 GHB CELLS
 
 SOLVING FOR HEAD 

 OUTPUT CONTROL FOR STRESS PERIOD    3   TIME STEP   1
    SAVE HEAD FOR ALL LAYERS
    SAVE DRAWDOWN FOR ALL LAYERS
    SAVE BUDGET
    PRINT HEAD FOR ALL LAYERS
    PRINT BUDGET
 UBDSV1 SAVING "         STORAGE" ON UNIT  53 AT TIME STEP  1, STRESS PERIOD   3
 UBDSV2 SAVING "   CONSTANT HEAD" ON UNIT  53 AT TIME STEP  1, STRESS PERIOD   3
 UBDSV1 SAVING "FLOW RIGHT FACE " ON UNIT  53 AT TIME STEP  1, STRESS PERIOD   3
 UBDSV1 SAVING "FLOW FRONT FACE " ON UNIT  53 AT TIME STEP  1, STRESS PERIOD   3
1
              HEAD IN LAYER   1 AT END OF TIME STEP   1 IN STRESS PERIOD    3
  ---------------------------------------------------------------------------

            1           2           3           4           5           6           7           8           9          10
 ........................................................................................................................
   1    9.990       8.965       7.921       6.859       5.776       4.672       3.545       2.394       1.217      1.2194E-02
   2    9.990       8.965       7.921       6.859       5.776       4.672       3.545       2.394       1.217      1.2194E-02
   3    9.990       8.965       7.921       6.859       5.776       4.672       3.545       2.394       1.217      1.2194E-02
   4    9.990       8.965       7.921       6.858       5.765       4.671       3.545       2.394       1.217      1.2194E-02
   5    9.990       8.965       7.921       6.848       5.529       4.661       3.545       2.394       1.217      1.2194E-02
   6    9.990       8.965       7.921       6.858       5.765       4.671       3.545       2.394       1.217      1.2194E-02
   7    9.990       8.965       7.921       6.859       5.776       4.672       3.545       2.394       1.217      1.2194E-02
   8    9.990       8.965       7.921       6.859       5.776       4.672       3.545       2.394       1.217      1.2194E-02
   9    9.990       8.965       7.921       6.859       5.776       4.672       3.545       2.394       1.217      1.2194E-02
  10    9.990       8.965       7.921       6.859       5.776       4.672       3.545       2.394       1.217      1.2194E-02

 HEAD WILL BE SAVED ON UNIT   51 AT END OF TIME STEP   1, STRESS PERIOD    3

 DRAWDOWN WILL BE SAVED ON UNIT   52 AT END OF TIME STEP   1, STRESS PERIOD    3
1
  VOLUMETRIC BUDGET FOR ENTIRE MODEL AT END OF TIME STEP  1 IN STRESS PERIOD   3
  ------------------------------------------------------------------------------

     CUMULATIVE VOLUMES      L**3       RATES FOR THIS TIME STEP      L**3/T
     ------------------                 ------------------------

           IN:                                      IN:
           ---                                      ---
             STORAGE =         300.0071               STORAGE =         299.9973
       CONSTANT HEAD =           0.0000         CONSTANT HEAD =           0.0000
               WELLS =           0.0000                 WELLS =           0.0000
     HEAD DEP BOUNDS =       62190.8906       HEAD DEP BOUNDS =         609.7164

            TOTAL IN =       62490.8984              TOTAL IN =         909.7137

          OUT:                                     OUT:
          ----                                     ----
             STORAGE =           0.5433               STORAGE =       4.5300E-03
       CONSTANT HEAD =           0.0000         CONSTANT HEAD =           0.0000
               WELLS =         300.0000                 WELLS =         300.0000
     HEAD DEP BOUNDS =       62188.2148       HEAD DEP BOUNDS =         609.6888

           TOTAL OUT =       62488.7578             TOTAL OUT =         909.6933

            IN - OUT =           2.1406              IN - OUT =       2.0447E-02

 PERCENT DISCREPANCY =           0.00     PERCENT DISCREPANCY =           0.00






          TIME SUMMARY AT END OF TIME STEP   1 IN STRESS PERIOD    3
                    SECONDS     MINUTES      HOURS       DAYS        YEARS
                    -----------------------------------------------------------
   TIME STEP LENGTH  86400.      1440.0      24.000      1.0000     2.73785E-03
 STRESS PERIOD TIME  86400.      1440.0      24.000      1.0000     2.73785E-03
         TOTAL TIME 8.81280E+06 1.46880E+05  2448.0      102.00     0.27926    
1
 
 SOLVING FOR HEAD 

 OUTPUT CONTROL FOR STRESS PERIOD    3   TIME STEP   2
    SAVE HEAD FOR ALL LAYERS
    SAVE DRAWDOWN FOR ALL LAYERS
    SAVE BUDGET
    PRINT HEAD FOR ALL LAYERS
    PRINT BUDGET
 UBDSV1 SAVING "         STORAGE" ON UNIT  53 AT TIME STEP  2, STRESS PERIOD   3
 UBDSV2 SAVING "   CONSTANT HEAD" ON UNIT  53 AT TIME STEP  2, STRESS PERIOD   3
 UBDSV1 SAVING "FLOW RIGHT FACE " ON UNIT  53 AT TIME STEP  2, STRESS PERIOD   3
 UBDSV1 SAVING "FLOW FRONT FACE " ON UNIT  53 AT TIME STEP  2, STRESS PERIOD   3
1
              HEAD IN LAYER   1 AT END OF TIME STEP   2 IN STRESS PERIOD    3
  ---------------------------------------------------------------------------

            1           2           3           4           5           6           7           8           9          10
 ........................................................................................................................
   1    9.990       8.965       7.921       6.859       5.776       4.672       3.545       2.394       1.217      1.2194E-02
   2    9.990       8.965       7.921       6.859       5.776       4.672       3.545       2.394       1.217      1.2194E-02
   3    9.990       8.965       7.921       6.859       5.774       4.672       3.545       2.394       1.217      1.2194E-02
   4    9.990       8.965       7.921       6.855       5.746       4.668       3.545       2.394       1.217      1.2194E-02
   5    9.990       8.965       7.920       6.829       5.323       4.642       3.543       2.394       1.217      1.2194E-02
   6    9.990       8.965       7.921       6.855       5.746       4.668       3.545       2.394       1.217      1.2194E-02
   7    9.990       8.965       7.921       6.859       5.774       4.672       3.545       2.394       1.217      1.2194E-02
   8    9.990       8.965       7.921       6.859       5.776       4.672       3.545       2.394       1.217      1.2194E-02
   9    9.990       8.965       7.921       6.859       5.776       4.672       3.545       2.394       1.217      1.2194E-02
  10    9.990       8.965       7.921       6.859       5.776       4.672       3.545       2.394       1.217      1.2194E-02

 HEAD WILL BE SAVED ON UNIT   51 AT END OF TIME STEP   2, STRESS PERIOD    3

 DRAWDOWN WILL BE SAVED ON UNIT   52 AT END OF TIME STEP   2, STRESS PERIOD    3
1
  VOLUMETRIC BUDGET FOR ENTIRE MODEL AT END OF TIME STEP  2 IN STRESS PERIOD   3
  ------------------------------------------------------------------------------

     CUMULATIVE VOLUMES      L**3       RATES FOR THIS TIME STEP      L**3/T
     ------------------                 ------------------------

           IN:                                      IN:
           ---                                      ---
             STORAGE =         599.9949               STORAGE =         299.9878
       CONSTANT HEAD =           0.0000         CONSTANT HEAD =           0.0000
               WELLS =           0.0000                 WELLS =           0.0000
     HEAD DEP BOUNDS =       62800.6133       HEAD DEP BOUNDS =         609.7230

            TOTAL IN =       63400.6094              TOTAL IN =         909.7108

          OUT:                                     OUT:
          ----                                     ----
             STORAGE =           0.5475               STORAGE =       4.2114E-03
       CONSTANT HEAD =           0.0000         CONSTANT HEAD =           0.0000
               WELLS =         600.0000                 WELLS =         300.0000
     HEAD DEP BOUNDS =       62797.9023       HEAD DEP BOUNDS =         609.6884

           TOTAL OUT =       63398.4492             TOTAL OUT =         909.6926

            IN - OUT =           2.1602              IN - OUT =       1.8127E-02

 PERCENT DISCREPANCY =           0.00     PERCENT DISCREPANCY =           0.00






          TIME SUMMARY AT END OF TIME STEP   2 IN STRESS PERIOD    3
                    SECONDS     MINUTES      HOURS       DAYS        YEARS
                    -----------------------------------------------------------
   TIME STEP LENGTH  86400.      1440.0      24.000      1.0000     2.73785E-03
 STRESS PERIOD TIME 1.72800E+05  2880.0      48.000      2.0000     5.47570E-03
         TOTAL TIME 8.89920E+06 1.48320E+05  2472.0      103.00     0.28200    
1
 
 SOLVING FOR HEAD 

 OUTPUT CONTROL FOR STRESS PERIOD    3   TIME STEP   3
    SAVE HEAD FOR ALL LAYERS
    SAVE DRAWDOWN FOR ALL LAYERS
    SAVE BUDGET
    PRINT HEAD FOR ALL LAYERS
    PRINT BUDGET
 UBDSV1 SAVING "         STORAGE" ON UNIT  53 AT TIME STEP  3, STRESS PERIOD   3
 UBDSV2 SAVING "   CONSTANT HEAD" ON UNIT  53 AT TIME STEP  3, STRESS PERIOD   3
 UBDSV1 SAVING "FLOW RIGHT FACE " ON UNIT  53 AT TIME STEP  3, STRESS PERIOD   3
 UBDSV1 SAVING "FLOW FRONT FACE " ON UNIT  53 AT TIME STEP  3, STRESS PERIOD   3
1
              HEAD IN LAYER   1 AT END OF TIME STEP   3 IN STRESS PERIOD    3
  ---------------------------------------------------------------------------

            1           2           3           4           5           6           7           8           9          10
 ........................................................................................................................
   1    9.990       8.965       7.921       6.859       5.776       4.672       3.545       2.394       1.217      1.2194E-02
   2    9.990       8.965       7.921       6.859       5.776       4.672       3.545       2.394       1.217      1.2194E-02
   3    9.990       8.965       7.921       6.858       5.772       4.671       3.545       2.394       1.217      1.2194E-02
   4    9.990       8.965       7.921       6.851       5.722       4.664       3.544       2.394       1.217      1.2194E-02
   5    9.990       8.964       7.917       6.805       5.150       4.618       3.541       2.394       1.217      1.2194E-02
   6    9.990       8.965       7.921       6.851       5.722       4.664       3.544       2.394       1.217      1.2194E-02
   7    9.990       8.965       7.921       6.858       5.772       4.671       3.545       2.394       1.217      1.2194E-02
   8    9.990       8.965       7.921       6.859       5.776       4.672       3.545       2.394       1.217      1.2194E-02
   9    9.990       8.965       7.921       6.859       5.776       4.672       3.545       2.394       1.217      1.2194E-02
  10    9.990       8.965       7.921       6.859       5.776       4.672       3.545       2.394       1.217      1.2194E-02

 HEAD WILL BE SAVED ON UNIT   51 AT END OF TIME STEP   3, STRESS PERIOD    3

 DRAWDOWN WILL BE SAVED ON UNIT   52 AT END OF TIME STEP   3, STRESS PERIOD    3
1
  VOLUMETRIC BUDGET FOR ENTIRE MODEL AT END OF TIME STEP  3 IN STRESS PERIOD   3
  ------------------------------------------------------------------------------

     CUMULATIVE VOLUMES      L**3       RATES FOR THIS TIME STEP      L**3/T
     ------------------                 ------------------------

           IN:                                      IN:
           ---                                      ---
             STORAGE =         899.9658               STORAGE =         299.9709
       CONSTANT HEAD =           0.0000         CONSTANT HEAD =           0.0000
               WELLS =           0.0000                 WELLS =           0.0000
     HEAD DEP BOUNDS =       63410.3516       HEAD DEP BOUNDS =         609.7377

            TOTAL IN =       64310.3164              TOTAL IN =         909.7086

          OUT:                                     OUT:
          ----                                     ----
             STORAGE =           0.5516               STORAGE =       4.0398E-03
       CONSTANT HEAD =           0.0000         CONSTANT HEAD =           0.0000
               WELLS =         900.0000                 WELLS =         300.0000
     HEAD DEP BOUNDS =       63407.5898       HEAD DEP BOUNDS =         609.6876

           TOTAL OUT =       64308.1406             TOTAL OUT =         909.6916

            IN - OUT =           2.1758              IN - OUT =       1.7029E-02

 PERCENT DISCREPANCY =           0.00     PERCENT DISCREPANCY =           0.00






          TIME SUMMARY AT END OF TIME STEP   3 IN STRESS PERIOD    3
                    SECONDS     MINUTES      HOURS       DAYS        YEARS
                    -----------------------------------------------------------
   TIME STEP LENGTH  86400.      1440.0      24.000      1.0000     2.73785E-03
 STRESS PERIOD TIME 2.59200E+05  4320.0      72.000      3.0000     8.21355E-03
         TOTAL TIME 8.98560E+06 1.49760E+05  2496.0      104.00     0.28474    
1
 
 SOLVING FOR HEAD 

 OUTPUT CONTROL FOR STRESS PERIOD    3   TIME STEP   4
    SAVE HEAD FOR ALL LAYERS
    SAVE DRAWDOWN FOR ALL LAYERS
    SAVE BUDGET
    PRINT HEAD FOR ALL LAYERS
    PRINT BUDGET
 UBDSV1 SAVING "         STORAGE" ON UNIT  53 AT TIME STEP  4, STRESS PERIOD   3
 UBDSV2 SAVING "   CONSTANT HEAD" ON UNIT  53 AT TIME STEP  4, STRESS PERIOD   3
 UBDSV1 SAVING "FLOW RIGHT FACE " ON UNIT  53 AT TIME STEP  4, STRESS PERIOD   3
 UBDSV1 SAVING "FLOW FRONT FACE " ON UNIT  53 AT TIME STEP  4, STRESS PERIOD   3
1
              HEAD IN LAYER   1 AT END OF TIME STEP   4 IN STRESS PERIOD    3
  ---------------------------------------------------------------------------

            1           2           3           4           5           6           7           8           9          10
 ........................................................................................................................
   1    9.990       8.965       7.921       6.859       5.776       4.672       3.545       2.394       1.217      1.2194E-02
   2    9.990       8.965       7.921       6.859       5.776       4.672       3.545       2.394       1.217      1.2194E-02
   3    9.990       8.965       7.921       6.857       5.769       4.670       3.545       2.394       1.217      1.2194E-02
   4    9.990       8.965       7.920       6.845       5.695       4.658       3.544       2.394       1.217      1.2194E-02
   5    9.990       8.964       7.914       6.779       5.003       4.591       3.538       2.393       1.217      1.2193E-02
   6    9.990       8.965       7.920       6.845       5.695       4.658       3.544       2.394       1.217      1.2194E-02
   7    9.990       8.965       7.921       6.857       5.769       4.670       3.545       2.394       1.217      1.2194E-02
   8    9.990       8.965       7.921       6.859       5.776       4.672       3.545       2.394       1.217      1.2194E-02
   9    9.990       8.965       7.921       6.859       5.776       4.672       3.545       2.394       1.217      1.2194E-02
  10    9.990       8.965       7.921       6.859       5.776       4.672       3.545       2.394       1.217      1.2194E-02

 HEAD WILL BE SAVED ON UNIT   51 AT END OF TIME STEP   4, STRESS PERIOD    3

 DRAWDOWN WILL BE SAVED ON UNIT   52 AT END OF TIME STEP   4, STRESS PERIOD    3
1
  VOLUMETRIC BUDGET FOR ENTIRE MODEL AT END OF TIME STEP  4 IN STRESS PERIOD   3
  ------------------------------------------------------------------------------

     CUMULATIVE VOLUMES      L**3       RATES FOR THIS TIME STEP      L**3/T
     ------------------                 ------------------------

           IN:                                      IN:
           ---                                      ---
             STORAGE =        1199.9099               STORAGE =         299.9441
       CONSTANT HEAD =           0.0000         CONSTANT HEAD =           0.0000
               WELLS =           0.0000                 WELLS =           0.0000
     HEAD DEP BOUNDS =       64020.1172       HEAD DEP BOUNDS =         609.7642

            TOTAL IN =       65220.0273              TOTAL IN =         909.7083

          OUT:                                     OUT:
          ----                                     ----
             STORAGE =           0.5552               STORAGE =       3.5763E-03
       CONSTANT HEAD =           0.0000         CONSTANT HEAD =           0.0000
               WELLS =        1200.0000                 WELLS =         300.0000
     HEAD DEP BOUNDS =       64017.2773       HEAD DEP BOUNDS =         609.6859

           TOTAL OUT =       65217.8320             TOTAL OUT =         909.6895

            IN - OUT =           2.1953              IN - OUT =       1.8799E-02

 PERCENT DISCREPANCY =           0.00     PERCENT DISCREPANCY =           0.00






          TIME SUMMARY AT END OF TIME STEP   4 IN STRESS PERIOD    3
                    SECONDS     MINUTES      HOURS       DAYS        YEARS
                    -----------------------------------------------------------
   TIME STEP LENGTH  86400.      1440.0      24.000      1.0000     2.73785E-03
 STRESS PERIOD TIME 3.45600E+05  5760.0      96.000      4.0000     1.09514E-02
         TOTAL TIME 9.07200E+06 1.51200E+05  2520.0      105.00     0.28747    
1
 
 SOLVING FOR HEAD 

 OUTPUT CONTROL FOR STRESS PERIOD    3   TIME STEP   5
    SAVE HEAD FOR ALL LAYERS
    SAVE DRAWDOWN FOR ALL LAYERS
    SAVE BUDGET
    PRINT HEAD FOR ALL LAYERS
    PRINT BUDGET
 UBDSV1 SAVING "         STORAGE" ON UNIT  53 AT TIME STEP  5, STRESS PERIOD   3
 UBDSV2 SAVING "   CONSTANT HEAD" ON UNIT  53 AT TIME STEP  5, STRESS PERIOD   3
 UBDSV1 SAVING "FLOW RIGHT FACE " ON UNIT  53 AT TIME STEP  5, STRESS PERIOD   3
 UBDSV1 SAVING "FLOW FRONT FACE " ON UNIT  53 AT TIME STEP  5, STRESS PERIOD   3
1
              HEAD IN LAYER   1 AT END OF TIME STEP   5 IN STRESS PERIOD    3
  ---------------------------------------------------------------------------

            1           2           3           4           5           6           7           8           9          10
 ........................................................................................................................
   1    9.990       8.965       7.921       6.859       5.776       4.672       3.545       2.394       1.217      1.2194E-02
   2    9.990       8.965       7.921       6.859       5.775       4.672       3.545       2.394       1.217      1.2194E-02
   3    9.990       8.965       7.921       6.856       5.765       4.669       3.545       2.394       1.217      1.2194E-02
   4    9.990       8.964       7.918       6.837       5.667       4.650       3.542       2.394       1.217      1.2194E-02
   5    9.990       8.964       7.910       6.750       4.877       4.562       3.534       2.393       1.217      1.2193E-02
   6    9.990       8.964       7.918       6.837       5.667       4.650       3.542       2.394       1.217      1.2194E-02
   7    9.990       8.965       7.921       6.856       5.765       4.669       3.545       2.394       1.217      1.2194E-02
   8    9.990       8.965       7.921       6.859       5.775       4.672       3.545       2.394       1.217      1.2194E-02
   9    9.990       8.965       7.921       6.859       5.776       4.672       3.545       2.394       1.217      1.2194E-02
  10    9.990       8.965       7.921       6.859       5.776       4.672       3.545       2.394       1.217      1.2194E-02

 HEAD WILL BE SAVED ON UNIT   51 AT END OF TIME STEP   5, STRESS PERIOD    3

 DRAWDOWN WILL BE SAVED ON UNIT   52 AT END OF TIME STEP   5, STRESS PERIOD    3
1
  VOLUMETRIC BUDGET FOR ENTIRE MODEL AT END OF TIME STEP  5 IN STRESS PERIOD   3
  ------------------------------------------------------------------------------

     CUMULATIVE VOLUMES      L**3       RATES FOR THIS TIME STEP      L**3/T
     ------------------                 ------------------------

           IN:                                      IN:
           ---                                      ---
             STORAGE =        1499.8024               STORAGE =         299.8924
       CONSTANT HEAD =           0.0000         CONSTANT HEAD =           0.0000
               WELLS =           0.0000                 WELLS =           0.0000
     HEAD DEP BOUNDS =       64629.9219       HEAD DEP BOUNDS =         609.8062

            TOTAL IN =       66129.7266              TOTAL IN =         909.6986

          OUT:                                     OUT:
          ----                                     ----
             STORAGE =           0.5583               STORAGE =       3.1624E-03
       CONSTANT HEAD =           0.0000         CONSTANT HEAD =           0.0000
               WELLS =        1500.0000                 WELLS =         300.0000
     HEAD DEP BOUNDS =       64626.9609       HEAD DEP BOUNDS =         609.6827

           TOTAL OUT =       66127.5156             TOTAL OUT =         909.6859

            IN - OUT =           2.2109              IN - OUT =       1.2756E-02

 PERCENT DISCREPANCY =           0.00     PERCENT DISCREPANCY =           0.00






          TIME SUMMARY AT END OF TIME STEP   5 IN STRESS PERIOD    3
                    SECONDS     MINUTES      HOURS       DAYS        YEARS
                    -----------------------------------------------------------
   TIME STEP LENGTH  86400.      1440.0      24.000      1.0000     2.73785E-03
 STRESS PERIOD TIME 4.32000E+05  7200.0      120.00      5.0000     1.36893E-02
         TOTAL TIME 9.15840E+06 1.52640E+05  2544.0      106.00     0.29021    
1
 
 SOLVING FOR HEAD 

 OUTPUT CONTROL FOR STRESS PERIOD    3   TIME STEP   6
    SAVE HEAD FOR ALL LAYERS
    SAVE DRAWDOWN FOR ALL LAYERS
    SAVE BUDGET
    PRINT HEAD FOR ALL LAYERS
    PRINT BUDGET
 UBDSV1 SAVING "         STORAGE" ON UNIT  53 AT TIME STEP  6, STRESS PERIOD   3
 UBDSV2 SAVING "   CONSTANT HEAD" ON UNIT  53 AT TIME STEP  6, STRESS PERIOD   3
 UBDSV1 SAVING "FLOW RIGHT FACE " ON UNIT  53 AT TIME STEP  6, STRESS PERIOD   3
 UBDSV1 SAVING "FLOW FRONT FACE " ON UNIT  53 AT TIME STEP  6, STRESS PERIOD   3
1
              HEAD IN LAYER   1 AT END OF TIME STEP   6 IN STRESS PERIOD    3
  ---------------------------------------------------------------------------

            1           2           3           4           5           6           7           8           9          10
 ........................................................................................................................
   1    9.990       8.965       7.921       6.859       5.776       4.672       3.545       2.394       1.217      1.2194E-02
   2    9.990       8.965       7.921       6.858       5.775       4.672       3.545       2.394       1.217      1.2194E-02
   3    9.990       8.965       7.921       6.854       5.760       4.668       3.544       2.394       1.217      1.2194E-02
   4    9.990       8.964       7.917       6.828       5.638       4.641       3.541       2.393       1.217      1.2193E-02
   5    9.990       8.963       7.905       6.722       4.769       4.533       3.529       2.392       1.217      1.2192E-02
   6    9.990       8.964       7.917       6.828       5.638       4.641       3.541       2.393       1.217      1.2193E-02
   7    9.990       8.965       7.921       6.854       5.760       4.668       3.544       2.394       1.217      1.2194E-02
   8    9.990       8.965       7.921       6.858       5.775       4.672       3.545       2.394       1.217      1.2194E-02
   9    9.990       8.965       7.921       6.859       5.776       4.672       3.545       2.394       1.217      1.2194E-02
  10    9.990       8.965       7.921       6.859       5.776       4.672       3.545       2.394       1.217      1.2194E-02

 HEAD WILL BE SAVED ON UNIT   51 AT END OF TIME STEP   6, STRESS PERIOD    3

 DRAWDOWN WILL BE SAVED ON UNIT   52 AT END OF TIME STEP   6, STRESS PERIOD    3
1
  VOLUMETRIC BUDGET FOR ENTIRE MODEL AT END OF TIME STEP  6 IN STRESS PERIOD   3
  ------------------------------------------------------------------------------

     CUMULATIVE VOLUMES      L**3       RATES FOR THIS TIME STEP      L**3/T
     ------------------                 ------------------------

           IN:                                      IN:
           ---                                      ---
             STORAGE =        1799.6223               STORAGE =         299.8200
       CONSTANT HEAD =           0.0000         CONSTANT HEAD =           0.0000
               WELLS =           0.0000                 WELLS =           0.0000
     HEAD DEP BOUNDS =       65239.7969       HEAD DEP BOUNDS =         609.8735

            TOTAL IN =       67039.4219              TOTAL IN =         909.6935

          OUT:                                     OUT:
          ----                                     ----
             STORAGE =           0.5611               STORAGE =       2.7685E-03
       CONSTANT HEAD =           0.0000         CONSTANT HEAD =           0.0000
               WELLS =        1800.0000                 WELLS =         300.0000
     HEAD DEP BOUNDS =       65236.6367       HEAD DEP BOUNDS =         609.6768

           TOTAL OUT =       67037.1953             TOTAL OUT =         909.6796

            IN - OUT =           2.2266              IN - OUT =       1.3916E-02

 PERCENT DISCREPANCY =           0.00     PERCENT DISCREPANCY =           0.00






          TIME SUMMARY AT END OF TIME STEP   6 IN STRESS PERIOD    3
                    SECONDS     MINUTES      HOURS       DAYS        YEARS
                    -----------------------------------------------------------
   TIME STEP LENGTH  86400.      1440.0      24.000      1.0000     2.73785E-03
 STRESS PERIOD TIME 5.18400E+05  8640.0      144.00      6.0000     1.64271E-02
         TOTAL TIME 9.24480E+06 1.54080E+05  2568.0      107.00     0.29295    
1
 
 SOLVING FOR HEAD 

 OUTPUT CONTROL FOR STRESS PERIOD    3   TIME STEP   7
    SAVE HEAD FOR ALL LAYERS
    SAVE DRAWDOWN FOR ALL LAYERS
    SAVE BUDGET
    PRINT HEAD FOR ALL LAYERS
    PRINT BUDGET
 UBDSV1 SAVING "         STORAGE" ON UNIT  53 AT TIME STEP  7, STRESS PERIOD   3
 UBDSV2 SAVING "   CONSTANT HEAD" ON UNIT  53 AT TIME STEP  7, STRESS PERIOD   3
 UBDSV1 SAVING "FLOW RIGHT FACE " ON UNIT  53 AT TIME STEP  7, STRESS PERIOD   3
 UBDSV1 SAVING "FLOW FRONT FACE " ON UNIT  53 AT TIME STEP  7, STRESS PERIOD   3
1
              HEAD IN LAYER   1 AT END OF TIME STEP   7 IN STRESS PERIOD    3
  ---------------------------------------------------------------------------

            1           2           3           4           5           6           7           8           9          10
 ........................................................................................................................
   1    9.990       8.965       7.921       6.859       5.776       4.672       3.545       2.394       1.217      1.2194E-02
   2    9.990       8.965       7.921       6.858       5.774       4.671       3.545       2.394       1.217      1.2194E-02
   3    9.990       8.964       7.920       6.852       5.755       4.665       3.544       2.394       1.217      1.2194E-02
   4    9.990       8.964       7.915       6.818       5.609       4.631       3.539       2.393       1.217      1.2193E-02
   5    9.990       8.962       7.900       6.693       4.675       4.503       3.524       2.392       1.217      1.2192E-02
   6    9.990       8.964       7.915       6.818       5.609       4.631       3.539       2.393       1.217      1.2193E-02
   7    9.990       8.964       7.920       6.852       5.755       4.665       3.544       2.394       1.217      1.2194E-02
   8    9.990       8.965       7.921       6.858       5.774       4.671       3.545       2.394       1.217      1.2194E-02
   9    9.990       8.965       7.921       6.859       5.776       4.672       3.545       2.394       1.217      1.2194E-02
  10    9.990       8.965       7.921       6.859       5.776       4.672       3.545       2.394       1.217      1.2194E-02

 HEAD WILL BE SAVED ON UNIT   51 AT END OF TIME STEP   7, STRESS PERIOD    3

 DRAWDOWN WILL BE SAVED ON UNIT   52 AT END OF TIME STEP   7, STRESS PERIOD    3
1
  VOLUMETRIC BUDGET FOR ENTIRE MODEL AT END OF TIME STEP  7 IN STRESS PERIOD   3
  ------------------------------------------------------------------------------

     CUMULATIVE VOLUMES      L**3       RATES FOR THIS TIME STEP      L**3/T
     ------------------                 ------------------------

           IN:                                      IN:
           ---                                      ---
             STORAGE =        2099.3403               STORAGE =         299.7180
       CONSTANT HEAD =           0.0000         CONSTANT HEAD =           0.0000
               WELLS =           0.0000                 WELLS =           0.0000
     HEAD DEP BOUNDS =       65849.7578       HEAD DEP BOUNDS =         609.9626

            TOTAL IN =       67949.1016              TOTAL IN =         909.6805

          OUT:                                     OUT:
          ----                                     ----
             STORAGE =           0.5635               STORAGE =       2.4424E-03
       CONSTANT HEAD =           0.0000         CONSTANT HEAD =           0.0000
               WELLS =        2100.0000                 WELLS =         300.0000
     HEAD DEP BOUNDS =       65846.3047       HEAD DEP BOUNDS =         609.6689

           TOTAL OUT =       67946.8672             TOTAL OUT =         909.6714

            IN - OUT =           2.2344              IN - OUT =       9.1553E-03

 PERCENT DISCREPANCY =           0.00     PERCENT DISCREPANCY =           0.00






          TIME SUMMARY AT END OF TIME STEP   7 IN STRESS PERIOD    3
                    SECONDS     MINUTES      HOURS       DAYS        YEARS
                    -----------------------------------------------------------
   TIME STEP LENGTH  86400.      1440.0      24.000      1.0000     2.73785E-03
 STRESS PERIOD TIME 6.04800E+05  10080.      168.00      7.0000     1.91650E-02
         TOTAL TIME 9.33120E+06 1.55520E+05  2592.0      108.00     0.29569    
1
 
 SOLVING FOR HEAD 

 OUTPUT CONTROL FOR STRESS PERIOD    3   TIME STEP   8
    SAVE HEAD FOR ALL LAYERS
    SAVE DRAWDOWN FOR ALL LAYERS
    SAVE BUDGET
    PRINT HEAD FOR ALL LAYERS
    PRINT BUDGET
 UBDSV1 SAVING "         STORAGE" ON UNIT  53 AT TIME STEP  8, STRESS PERIOD   3
 UBDSV2 SAVING "   CONSTANT HEAD" ON UNIT  53 AT TIME STEP  8, STRESS PERIOD   3
 UBDSV1 SAVING "FLOW RIGHT FACE " ON UNIT  53 AT TIME STEP  8, STRESS PERIOD   3
 UBDSV1 SAVING "FLOW FRONT FACE " ON UNIT  53 AT TIME STEP  8, STRESS PERIOD   3
1
              HEAD IN LAYER   1 AT END OF TIME STEP   8 IN STRESS PERIOD    3
  ---------------------------------------------------------------------------

            1           2           3           4           5           6           7           8           9          10
 ........................................................................................................................
   1    9.990       8.965       7.921       6.859       5.776       4.672       3.545       2.394       1.217      1.2194E-02
   2    9.990       8.965       7.921       6.858       5.773       4.671       3.545       2.394       1.217      1.2194E-02
   3    9.990       8.964       7.919       6.850       5.749       4.663       3.543       2.394       1.217      1.2193E-02
   4    9.990       8.963       7.912       6.807       5.580       4.620       3.536       2.393       1.217      1.2192E-02
   5    9.990       8.961       7.894       6.664       4.593       4.474       3.518       2.391       1.217      1.2191E-02
   6    9.990       8.963       7.912       6.807       5.580       4.620       3.536       2.393       1.217      1.2192E-02
   7    9.990       8.964       7.919       6.850       5.749       4.663       3.543       2.394       1.217      1.2193E-02
   8    9.990       8.965       7.921       6.858       5.773       4.671       3.545       2.394       1.217      1.2194E-02
   9    9.990       8.965       7.921       6.859       5.776       4.672       3.545       2.394       1.217      1.2194E-02
  10    9.990       8.965       7.921       6.859       5.776       4.672       3.545       2.394       1.217      1.2194E-02

 HEAD WILL BE SAVED ON UNIT   51 AT END OF TIME STEP   8, STRESS PERIOD    3

 DRAWDOWN WILL BE SAVED ON UNIT   52 AT END OF TIME STEP   8, STRESS PERIOD    3
1
  VOLUMETRIC BUDGET FOR ENTIRE MODEL AT END OF TIME STEP  8 IN STRESS PERIOD   3
  ------------------------------------------------------------------------------

     CUMULATIVE VOLUMES      L**3       RATES FOR THIS TIME STEP      L**3/T
     ------------------                 ------------------------

           IN:                                      IN:
           ---                                      ---
             STORAGE =        2398.9265               STORAGE =         299.5861
       CONSTANT HEAD =           0.0000         CONSTANT HEAD =           0.0000
               WELLS =           0.0000                 WELLS =           0.0000
     HEAD DEP BOUNDS =       66459.8438       HEAD DEP BOUNDS =         610.0895

            TOTAL IN =       68858.7734              TOTAL IN =         909.6757

          OUT:                                     OUT:
          ----                                     ----
             STORAGE =           0.5657               STORAGE =       2.1496E-03
       CONSTANT HEAD =           0.0000         CONSTANT HEAD =           0.0000
               WELLS =        2400.0000                 WELLS =         300.0000
     HEAD DEP BOUNDS =       66455.9609       HEAD DEP BOUNDS =         609.6553

           TOTAL OUT =       68856.5234             TOTAL OUT =         909.6575

            IN - OUT =           2.2500              IN - OUT =       1.8188E-02

 PERCENT DISCREPANCY =           0.00     PERCENT DISCREPANCY =           0.00






          TIME SUMMARY AT END OF TIME STEP   8 IN STRESS PERIOD    3
                    SECONDS     MINUTES      HOURS       DAYS        YEARS
                    -----------------------------------------------------------
   TIME STEP LENGTH  86400.      1440.0      24.000      1.0000     2.73785E-03
 STRESS PERIOD TIME 6.91200E+05  11520.      192.00      8.0000     2.19028E-02
         TOTAL TIME 9.41760E+06 1.56960E+05  2616.0      109.00     0.29843    
1
 
 SOLVING FOR HEAD 

 OUTPUT CONTROL FOR STRESS PERIOD    3   TIME STEP   9
    SAVE HEAD FOR ALL LAYERS
    SAVE DRAWDOWN FOR ALL LAYERS
    SAVE BUDGET
    PRINT HEAD FOR ALL LAYERS
    PRINT BUDGET
 UBDSV1 SAVING "         STORAGE" ON UNIT  53 AT TIME STEP  9, STRESS PERIOD   3
 UBDSV2 SAVING "   CONSTANT HEAD" ON UNIT  53 AT TIME STEP  9, STRESS PERIOD   3
 UBDSV1 SAVING "FLOW RIGHT FACE " ON UNIT  53 AT TIME STEP  9, STRESS PERIOD   3
 UBDSV1 SAVING "FLOW FRONT FACE " ON UNIT  53 AT TIME STEP  9, STRESS PERIOD   3
1
              HEAD IN LAYER   1 AT END OF TIME STEP   9 IN STRESS PERIOD    3
  ---------------------------------------------------------------------------

            1           2           3           4           5           6           7           8           9          10
 ........................................................................................................................
   1    9.990       8.965       7.921       6.859       5.776       4.672       3.545       2.394       1.217      1.2194E-02
   2    9.990       8.965       7.921       6.857       5.772       4.670       3.545       2.394       1.217      1.2194E-02
   3    9.990       8.964       7.919       6.847       5.742       4.660       3.542       2.394       1.217      1.2193E-02
   4    9.990       8.963       7.909       6.795       5.551       4.608       3.533       2.392       1.217      1.2192E-02
   5    9.990       8.960       7.888       6.636       4.520       4.445       3.511       2.390       1.216      1.2189E-02
   6    9.990       8.963       7.909       6.795       5.551       4.608       3.533       2.392       1.217      1.2192E-02
   7    9.990       8.964       7.919       6.847       5.742       4.660       3.542       2.394       1.217      1.2193E-02
   8    9.990       8.965       7.921       6.857       5.772       4.670       3.545       2.394       1.217      1.2194E-02
   9    9.990       8.965       7.921       6.859       5.776       4.672       3.545       2.394       1.217      1.2194E-02
  10    9.990       8.965       7.921       6.859       5.776       4.672       3.545       2.394       1.217      1.2194E-02

 HEAD WILL BE SAVED ON UNIT   51 AT END OF TIME STEP   9, STRESS PERIOD    3

 DRAWDOWN WILL BE SAVED ON UNIT   52 AT END OF TIME STEP   9, STRESS PERIOD    3
1
  VOLUMETRIC BUDGET FOR ENTIRE MODEL AT END OF TIME STEP  9 IN STRESS PERIOD   3
  ------------------------------------------------------------------------------

     CUMULATIVE VOLUMES      L**3       RATES FOR THIS TIME STEP      L**3/T
     ------------------                 ------------------------

           IN:                                      IN:
           ---                                      ---
             STORAGE =        2698.3411               STORAGE =         299.4145
       CONSTANT HEAD =           0.0000         CONSTANT HEAD =           0.0000
               WELLS =           0.0000                 WELLS =           0.0000
     HEAD DEP BOUNDS =       67070.0703       HEAD DEP BOUNDS =         610.2298

            TOTAL IN =       69768.4141              TOTAL IN =         909.6443

          OUT:                                     OUT:
          ----                                     ----
             STORAGE =           0.5675               STORAGE =       1.8044E-03
       CONSTANT HEAD =           0.0000         CONSTANT HEAD =           0.0000
               WELLS =        2700.0000                 WELLS =         300.0000
     HEAD DEP BOUNDS =       67065.6016       HEAD DEP BOUNDS =         609.6392

           TOTAL OUT =       69766.1719             TOTAL OUT =         909.6410

            IN - OUT =           2.2422              IN - OUT =       3.2959E-03

 PERCENT DISCREPANCY =           0.00     PERCENT DISCREPANCY =           0.00






          TIME SUMMARY AT END OF TIME STEP   9 IN STRESS PERIOD    3
                    SECONDS     MINUTES      HOURS       DAYS        YEARS
                    -----------------------------------------------------------
   TIME STEP LENGTH  86400.      1440.0      24.000      1.0000     2.73785E-03
 STRESS PERIOD TIME 7.77600E+05  12960.      216.00      9.0000     2.46407E-02
         TOTAL TIME 9.50400E+06 1.58400E+05  2640.0      110.00     0.30116    
1
 
 SOLVING FOR HEAD 

 OUTPUT CONTROL FOR STRESS PERIOD    3   TIME STEP  10
    SAVE HEAD FOR ALL LAYERS
    SAVE DRAWDOWN FOR ALL LAYERS
    SAVE BUDGET
    PRINT HEAD FOR ALL LAYERS
    PRINT BUDGET
 UBDSV1 SAVING "         STORAGE" ON UNIT  53 AT TIME STEP 10, STRESS PERIOD   3
 UBDSV2 SAVING "   CONSTANT HEAD" ON UNIT  53 AT TIME STEP 10, STRESS PERIOD   3
 UBDSV1 SAVING "FLOW RIGHT FACE " ON UNIT  53 AT TIME STEP 10, STRESS PERIOD   3
 UBDSV1 SAVING "FLOW FRONT FACE " ON UNIT  53 AT TIME STEP 10, STRESS PERIOD   3
1
              HEAD IN LAYER   1 AT END OF TIME STEP  10 IN STRESS PERIOD    3
  ---------------------------------------------------------------------------

            1           2           3           4           5           6           7           8           9          10
 ........................................................................................................................
   1    9.990       8.965       7.921       6.859       5.775       4.672       3.545       2.394       1.217      1.2194E-02
   2    9.990       8.965       7.921       6.856       5.770       4.670       3.544       2.394       1.217      1.2194E-02
   3    9.990       8.964       7.918       6.843       5.735       4.656       3.542       2.393       1.217      1.2193E-02
   4    9.990       8.962       7.906       6.782       5.524       4.595       3.530       2.392       1.217      1.2191E-02
   5    9.990       8.959       7.881       6.609       4.455       4.417       3.504       2.388       1.216      1.2187E-02
   6    9.990       8.962       7.906       6.782       5.524       4.595       3.530       2.392       1.217      1.2191E-02
   7    9.990       8.964       7.918       6.843       5.735       4.656       3.542       2.393       1.217      1.2193E-02
   8    9.990       8.965       7.921       6.856       5.770       4.670       3.544       2.394       1.217      1.2194E-02
   9    9.990       8.965       7.921       6.859       5.775       4.672       3.545       2.394       1.217      1.2194E-02
  10    9.990       8.965       7.921       6.859       5.776       4.672       3.545       2.394       1.217      1.2194E-02

 HEAD WILL BE SAVED ON UNIT   51 AT END OF TIME STEP  10, STRESS PERIOD    3

 DRAWDOWN WILL BE SAVED ON UNIT   52 AT END OF TIME STEP  10, STRESS PERIOD    3
1
  VOLUMETRIC BUDGET FOR ENTIRE MODEL AT END OF TIME STEP 10 IN STRESS PERIOD   3
  ------------------------------------------------------------------------------

     CUMULATIVE VOLUMES      L**3       RATES FOR THIS TIME STEP      L**3/T
     ------------------                 ------------------------

           IN:                                      IN:
           ---                                      ---
             STORAGE =        2997.5562               STORAGE =         299.2151
       CONSTANT HEAD =           0.0000         CONSTANT HEAD =           0.0000
               WELLS =           0.0000                 WELLS =           0.0000
     HEAD DEP BOUNDS =       67680.4844       HEAD DEP BOUNDS =         610.4115

            TOTAL IN =       70678.0391              TOTAL IN =         909.6266

          OUT:                                     OUT:
          ----                                     ----
             STORAGE =           0.5691               STORAGE =       1.6384E-03
       CONSTANT HEAD =           0.0000         CONSTANT HEAD =           0.0000
               WELLS =        3000.0000                 WELLS =         300.0000
     HEAD DEP BOUNDS =       67675.2188       HEAD DEP BOUNDS =         609.6158

           TOTAL OUT =       70675.7891             TOTAL OUT =         909.6174

            IN - OUT =           2.2500              IN - OUT =       9.1553E-03

 PERCENT DISCREPANCY =           0.00     PERCENT DISCREPANCY =           0.00






          TIME SUMMARY AT END OF TIME STEP  10 IN STRESS PERIOD    3
                    SECONDS     MINUTES      HOURS       DAYS        YEARS
                    -----------------------------------------------------------
   TIME STEP LENGTH  86400.      1440.0      24.000      1.0000     2.73785E-03
 STRESS PERIOD TIME 8.64000E+05  14400.      240.00      10.000     2.73785E-02
         TOTAL TIME 9.59040E+06 1.59840E+05  2664.0      111.00     0.30390    
1
 
 SOLVING FOR HEAD 

 OUTPUT CONTROL FOR STRESS PERIOD    3   TIME STEP  11
    SAVE HEAD FOR ALL LAYERS
    SAVE DRAWDOWN FOR ALL LAYERS
    SAVE BUDGET
    PRINT HEAD FOR ALL LAYERS
    PRINT BUDGET
 UBDSV1 SAVING "         STORAGE" ON UNIT  53 AT TIME STEP 11, STRESS PERIOD   3
 UBDSV2 SAVING "   CONSTANT HEAD" ON UNIT  53 AT TIME STEP 11, STRESS PERIOD   3
 UBDSV1 SAVING "FLOW RIGHT FACE " ON UNIT  53 AT TIME STEP 11, STRESS PERIOD   3
 UBDSV1 SAVING "FLOW FRONT FACE " ON UNIT  53 AT TIME STEP 11, STRESS PERIOD   3
1
              HEAD IN LAYER   1 AT END OF TIME STEP  11 IN STRESS PERIOD    3
  ---------------------------------------------------------------------------

            1           2           3           4           5           6           7           8           9          10
 ........................................................................................................................
   1    9.990       8.965       7.921       6.858       5.775       4.672       3.545       2.394       1.217      1.2194E-02
   2    9.990       8.964       7.920       6.855       5.769       4.669       3.544       2.394       1.217      1.2194E-02
   3    9.990       8.964       7.916       6.839       5.728       4.653       3.540       2.393       1.217      1.2192E-02
   4    9.990       8.961       7.902       6.769       5.497       4.582       3.526       2.391       1.216      1.2189E-02
   5    9.990       8.957       7.873       6.583       4.397       4.390       3.497       2.387       1.216      1.2185E-02
   6    9.990       8.961       7.902       6.769       5.497       4.582       3.526       2.391       1.216      1.2189E-02
   7    9.990       8.964       7.916       6.839       5.728       4.653       3.540       2.393       1.217      1.2192E-02
   8    9.990       8.964       7.920       6.856       5.769       4.669       3.544       2.394       1.217      1.2194E-02
   9    9.990       8.965       7.921       6.858       5.775       4.672       3.545       2.394       1.217      1.2194E-02
  10    9.990       8.965       7.921       6.859       5.776       4.672       3.545       2.394       1.217      1.2194E-02

 HEAD WILL BE SAVED ON UNIT   51 AT END OF TIME STEP  11, STRESS PERIOD    3

 DRAWDOWN WILL BE SAVED ON UNIT   52 AT END OF TIME STEP  11, STRESS PERIOD    3
1
  VOLUMETRIC BUDGET FOR ENTIRE MODEL AT END OF TIME STEP 11 IN STRESS PERIOD   3
  ------------------------------------------------------------------------------

     CUMULATIVE VOLUMES      L**3       RATES FOR THIS TIME STEP      L**3/T
     ------------------                 ------------------------

           IN:                                      IN:
           ---                                      ---
             STORAGE =        3296.5178               STORAGE =         298.9617
       CONSTANT HEAD =           0.0000         CONSTANT HEAD =           0.0000
               WELLS =           0.0000                 WELLS =           0.0000
     HEAD DEP BOUNDS =       68291.1250       HEAD DEP BOUNDS =         610.6428

            TOTAL IN =       71587.6406              TOTAL IN =         909.6046

          OUT:                                     OUT:
          ----                                     ----
             STORAGE =           0.5707               STORAGE =       1.5554E-03
       CONSTANT HEAD =           0.0000         CONSTANT HEAD =           0.0000
               WELLS =        3300.0000                 WELLS =         300.0000
     HEAD DEP BOUNDS =       68284.8047       HEAD DEP BOUNDS =         609.5851

           TOTAL OUT =       71585.3750             TOTAL OUT =         909.5867

            IN - OUT =           2.2656              IN - OUT =       1.7883E-02

 PERCENT DISCREPANCY =           0.00     PERCENT DISCREPANCY =           0.00






          TIME SUMMARY AT END OF TIME STEP  11 IN STRESS PERIOD    3
                    SECONDS     MINUTES      HOURS       DAYS        YEARS
                    -----------------------------------------------------------
   TIME STEP LENGTH  86400.      1440.0      24.000      1.0000     2.73785E-03
 STRESS PERIOD TIME 9.50400E+05  15840.      264.00      11.000     3.01164E-02
         TOTAL TIME 9.67680E+06 1.61280E+05  2688.0      112.00     0.30664    
1
 
 SOLVING FOR HEAD 

 OUTPUT CONTROL FOR STRESS PERIOD    3   TIME STEP  12
    SAVE HEAD FOR ALL LAYERS
    SAVE DRAWDOWN FOR ALL LAYERS
    SAVE BUDGET
    PRINT HEAD FOR ALL LAYERS
    PRINT BUDGET
 UBDSV1 SAVING "         STORAGE" ON UNIT  53 AT TIME STEP 12, STRESS PERIOD   3
 UBDSV2 SAVING "   CONSTANT HEAD" ON UNIT  53 AT TIME STEP 12, STRESS PERIOD   3
 UBDSV1 SAVING "FLOW RIGHT FACE " ON UNIT  53 AT TIME STEP 12, STRESS PERIOD   3
 UBDSV1 SAVING "FLOW FRONT FACE " ON UNIT  53 AT TIME STEP 12, STRESS PERIOD   3
1
              HEAD IN LAYER   1 AT END OF TIME STEP  12 IN STRESS PERIOD    3
  ---------------------------------------------------------------------------

            1           2           3           4           5           6           7           8           9          10
 ........................................................................................................................
   1    9.990       8.965       7.921       6.858       5.775       4.671       3.545       2.394       1.217      1.2194E-02
   2    9.990       8.964       7.920       6.855       5.767       4.668       3.544       2.394       1.217      1.2193E-02
   3    9.990       8.963       7.915       6.835       5.720       4.648       3.539       2.393       1.217      1.2192E-02
   4    9.990       8.960       7.898       6.756       5.471       4.568       3.522       2.390       1.216      1.2188E-02
   5    9.990       8.956       7.866       6.557       4.344       4.364       3.489       2.385       1.216      1.2182E-02
   6    9.990       8.960       7.898       6.756       5.471       4.568       3.522       2.390       1.216      1.2188E-02
   7    9.990       8.963       7.915       6.835       5.720       4.648       3.539       2.393       1.217      1.2192E-02
   8    9.990       8.964       7.920       6.855       5.767       4.668       3.544       2.394       1.217      1.2193E-02
   9    9.990       8.965       7.921       6.858       5.775       4.671       3.545       2.394       1.217      1.2194E-02
  10    9.990       8.965       7.921       6.859       5.776       4.672       3.545       2.394       1.217      1.2194E-02

 HEAD WILL BE SAVED ON UNIT   51 AT END OF TIME STEP  12, STRESS PERIOD    3

 DRAWDOWN WILL BE SAVED ON UNIT   52 AT END OF TIME STEP  12, STRESS PERIOD    3
1
  VOLUMETRIC BUDGET FOR ENTIRE MODEL AT END OF TIME STEP 12 IN STRESS PERIOD   3
  ------------------------------------------------------------------------------

     CUMULATIVE VOLUMES      L**3       RATES FOR THIS TIME STEP      L**3/T
     ------------------                 ------------------------

           IN:                                      IN:
           ---                                      ---
             STORAGE =        3595.1951               STORAGE =         298.6773
       CONSTANT HEAD =           0.0000         CONSTANT HEAD =           0.0000
               WELLS =           0.0000                 WELLS =           0.0000
     HEAD DEP BOUNDS =       68902.0156       HEAD DEP BOUNDS =         610.8916

            TOTAL IN =       72497.2109              TOTAL IN =         909.5690

          OUT:                                     OUT:
          ----                                     ----
             STORAGE =           0.5718               STORAGE =       1.1082E-03
       CONSTANT HEAD =           0.0000         CONSTANT HEAD =           0.0000
               WELLS =        3600.0000                 WELLS =         300.0000
     HEAD DEP BOUNDS =       68894.3516       HEAD DEP BOUNDS =         609.5504

           TOTAL OUT =       72494.9219             TOTAL OUT =         909.5515

            IN - OUT =           2.2891              IN - OUT =       1.7456E-02

 PERCENT DISCREPANCY =           0.00     PERCENT DISCREPANCY =           0.00






          TIME SUMMARY AT END OF TIME STEP  12 IN STRESS PERIOD    3
                    SECONDS     MINUTES      HOURS       DAYS        YEARS
                    -----------------------------------------------------------
   TIME STEP LENGTH  86400.      1440.0      24.000      1.0000     2.73785E-03
 STRESS PERIOD TIME 1.03680E+06  17280.      288.00      12.000     3.28542E-02
         TOTAL TIME 9.76320E+06 1.62720E+05  2712.0      113.00     0.30938    
1
 
 SOLVING FOR HEAD 

 OUTPUT CONTROL FOR STRESS PERIOD    3   TIME STEP  13
    SAVE HEAD FOR ALL LAYERS
    SAVE DRAWDOWN FOR ALL LAYERS
    SAVE BUDGET
    PRINT HEAD FOR ALL LAYERS
    PRINT BUDGET
 UBDSV1 SAVING "         STORAGE" ON UNIT  53 AT TIME STEP 13, STRESS PERIOD   3
 UBDSV2 SAVING "   CONSTANT HEAD" ON UNIT  53 AT TIME STEP 13, STRESS PERIOD   3
 UBDSV1 SAVING "FLOW RIGHT FACE " ON UNIT  53 AT TIME STEP 13, STRESS PERIOD   3
 UBDSV1 SAVING "FLOW FRONT FACE " ON UNIT  53 AT TIME STEP 13, STRESS PERIOD   3
1
              HEAD IN LAYER   1 AT END OF TIME STEP  13 IN STRESS PERIOD    3
  ---------------------------------------------------------------------------

            1           2           3           4           5           6           7           8           9          10
 ........................................................................................................................
   1    9.990       8.965       7.921       6.858       5.774       4.671       3.545       2.394       1.217      1.2194E-02
   2    9.990       8.964       7.920       6.853       5.765       4.667       3.544       2.394       1.217      1.2193E-02
   3    9.990       8.963       7.913       6.831       5.712       4.644       3.537       2.392       1.217      1.2191E-02
   4    9.990       8.959       7.893       6.742       5.447       4.554       3.517       2.389       1.216      1.2186E-02
   5    9.990       8.954       7.858       6.533       4.297       4.339       3.481       2.383       1.215      1.2179E-02
   6    9.990       8.959       7.893       6.742       5.447       4.554       3.517       2.389       1.216      1.2186E-02
   7    9.990       8.963       7.913       6.831       5.712       4.644       3.537       2.392       1.217      1.2191E-02
   8    9.990       8.964       7.920       6.853       5.765       4.667       3.544       2.394       1.217      1.2193E-02
   9    9.990       8.965       7.921       6.858       5.775       4.671       3.545       2.394       1.217      1.2194E-02
  10    9.990       8.965       7.921       6.859       5.776       4.672       3.545       2.394       1.217      1.2194E-02

 HEAD WILL BE SAVED ON UNIT   51 AT END OF TIME STEP  13, STRESS PERIOD    3

 DRAWDOWN WILL BE SAVED ON UNIT   52 AT END OF TIME STEP  13, STRESS PERIOD    3
1
  VOLUMETRIC BUDGET FOR ENTIRE MODEL AT END OF TIME STEP 13 IN STRESS PERIOD   3
  ------------------------------------------------------------------------------

     CUMULATIVE VOLUMES      L**3       RATES FOR THIS TIME STEP      L**3/T
     ------------------                 ------------------------

           IN:                                      IN:
           ---                                      ---
             STORAGE =        3893.5337               STORAGE =         298.3386
       CONSTANT HEAD =           0.0000         CONSTANT HEAD =           0.0000
               WELLS =           0.0000                 WELLS =           0.0000
     HEAD DEP BOUNDS =       69513.1797       HEAD DEP BOUNDS =         611.1649

            TOTAL IN =       73406.7109              TOTAL IN =         909.5035

          OUT:                                     OUT:
          ----                                     ----
             STORAGE =           0.5728               STORAGE =       9.6989E-04
       CONSTANT HEAD =           0.0000         CONSTANT HEAD =           0.0000
               WELLS =        3900.0000                 WELLS =         300.0000
     HEAD DEP BOUNDS =       69503.8516       HEAD DEP BOUNDS =         609.5038

           TOTAL OUT =       73404.4219             TOTAL OUT =         909.5048

            IN - OUT =           2.2891              IN - OUT =      -1.2207E-03

 PERCENT DISCREPANCY =           0.00     PERCENT DISCREPANCY =           0.00






          TIME SUMMARY AT END OF TIME STEP  13 IN STRESS PERIOD    3
                    SECONDS     MINUTES      HOURS       DAYS        YEARS
                    -----------------------------------------------------------
   TIME STEP LENGTH  86400.      1440.0      24.000      1.0000     2.73785E-03
 STRESS PERIOD TIME 1.12320E+06  18720.      312.00      13.000     3.55921E-02
         TOTAL TIME 9.84960E+06 1.64160E+05  2736.0      114.00     0.31211    
1
 
 SOLVING FOR HEAD 

 OUTPUT CONTROL FOR STRESS PERIOD    3   TIME STEP  14
    SAVE HEAD FOR ALL LAYERS
    SAVE DRAWDOWN FOR ALL LAYERS
    SAVE BUDGET
    PRINT HEAD FOR ALL LAYERS
    PRINT BUDGET
 UBDSV1 SAVING "         STORAGE" ON UNIT  53 AT TIME STEP 14, STRESS PERIOD   3
 UBDSV2 SAVING "   CONSTANT HEAD" ON UNIT  53 AT TIME STEP 14, STRESS PERIOD   3
 UBDSV1 SAVING "FLOW RIGHT FACE " ON UNIT  53 AT TIME STEP 14, STRESS PERIOD   3
 UBDSV1 SAVING "FLOW FRONT FACE " ON UNIT  53 AT TIME STEP 14, STRESS PERIOD   3
1
              HEAD IN LAYER   1 AT END OF TIME STEP  14 IN STRESS PERIOD    3
  ---------------------------------------------------------------------------

            1           2           3           4           5           6           7           8           9          10
 ........................................................................................................................
   1    9.990       8.965       7.921       6.858       5.774       4.671       3.545       2.394       1.217      1.2194E-02
   2    9.990       8.964       7.919       6.852       5.763       4.665       3.543       2.393       1.217      1.2193E-02
   3    9.990       8.962       7.912       6.826       5.704       4.639       3.536       2.392       1.217      1.2190E-02
   4    9.990       8.958       7.888       6.729       5.423       4.540       3.512       2.387       1.216      1.2184E-02
   5    9.990       8.952       7.850       6.509       4.253       4.315       3.473       2.381       1.215      1.2176E-02
   6    9.990       8.958       7.888       6.729       5.423       4.540       3.512       2.387       1.216      1.2184E-02
   7    9.990       8.962       7.912       6.826       5.704       4.639       3.536       2.392       1.217      1.2190E-02
   8    9.990       8.964       7.919       6.852       5.763       4.665       3.543       2.393       1.217      1.2193E-02
   9    9.990       8.965       7.921       6.858       5.774       4.671       3.545       2.394       1.217      1.2194E-02
  10    9.990       8.965       7.921       6.859       5.776       4.672       3.545       2.394       1.217      1.2194E-02

 HEAD WILL BE SAVED ON UNIT   51 AT END OF TIME STEP  14, STRESS PERIOD    3

 DRAWDOWN WILL BE SAVED ON UNIT   52 AT END OF TIME STEP  14, STRESS PERIOD    3
1
  VOLUMETRIC BUDGET FOR ENTIRE MODEL AT END OF TIME STEP 14 IN STRESS PERIOD   3
  ------------------------------------------------------------------------------

     CUMULATIVE VOLUMES      L**3       RATES FOR THIS TIME STEP      L**3/T
     ------------------                 ------------------------

           IN:                                      IN:
           ---                                      ---
             STORAGE =        4191.4976               STORAGE =         297.9641
       CONSTANT HEAD =           0.0000         CONSTANT HEAD =           0.0000
               WELLS =           0.0000                 WELLS =           0.0000
     HEAD DEP BOUNDS =       70124.6719       HEAD DEP BOUNDS =         611.4961

            TOTAL IN =       74316.1719              TOTAL IN =         909.4601

          OUT:                                     OUT:
          ----                                     ----
             STORAGE =           0.5736               STORAGE =       8.4782E-04
       CONSTANT HEAD =           0.0000         CONSTANT HEAD =           0.0000
               WELLS =        4200.0000                 WELLS =         300.0000
     HEAD DEP BOUNDS =       70113.3047       HEAD DEP BOUNDS =         609.4509

           TOTAL OUT =       74313.8750             TOTAL OUT =         909.4518

            IN - OUT =           2.2969              IN - OUT =       8.3618E-03

 PERCENT DISCREPANCY =           0.00     PERCENT DISCREPANCY =           0.00






          TIME SUMMARY AT END OF TIME STEP  14 IN STRESS PERIOD    3
                    SECONDS     MINUTES      HOURS       DAYS        YEARS
                    -----------------------------------------------------------
   TIME STEP LENGTH  86400.      1440.0      24.000      1.0000     2.73785E-03
 STRESS PERIOD TIME 1.20960E+06  20160.      336.00      14.000     3.83299E-02
         TOTAL TIME 9.93600E+06 1.65600E+05  2760.0      115.00     0.31485    
1
 
 SOLVING FOR HEAD 

 OUTPUT CONTROL FOR STRESS PERIOD    3   TIME STEP  15
    SAVE HEAD FOR ALL LAYERS
    SAVE DRAWDOWN FOR ALL LAYERS
    SAVE BUDGET
    PRINT HEAD FOR ALL LAYERS
    PRINT BUDGET
 UBDSV1 SAVING "         STORAGE" ON UNIT  53 AT TIME STEP 15, STRESS PERIOD   3
 UBDSV2 SAVING "   CONSTANT HEAD" ON UNIT  53 AT TIME STEP 15, STRESS PERIOD   3
 UBDSV1 SAVING "FLOW RIGHT FACE " ON UNIT  53 AT TIME STEP 15, STRESS PERIOD   3
 UBDSV1 SAVING "FLOW FRONT FACE " ON UNIT  53 AT TIME STEP 15, STRESS PERIOD   3
1
              HEAD IN LAYER   1 AT END OF TIME STEP  15 IN STRESS PERIOD    3
  ---------------------------------------------------------------------------

            1           2           3           4           5           6           7           8           9          10
 ........................................................................................................................
   1    9.990       8.964       7.921       6.857       5.773       4.670       3.545       2.394       1.217      1.2194E-02
   2    9.990       8.964       7.919       6.851       5.761       4.664       3.542       2.393       1.217      1.2193E-02
   3    9.990       8.962       7.910       6.821       5.696       4.634       3.534       2.391       1.216      1.2189E-02
   4    9.990       8.957       7.883       6.715       5.400       4.526       3.507       2.386       1.216      1.2181E-02
   5    9.990       8.950       7.842       6.487       4.213       4.292       3.464       2.379       1.215      1.2171E-02
   6    9.990       8.957       7.883       6.715       5.400       4.526       3.507       2.386       1.216      1.2181E-02
   7    9.990       8.962       7.910       6.821       5.696       4.634       3.534       2.391       1.216      1.2189E-02
   8    9.990       8.964       7.919       6.851       5.761       4.664       3.543       2.393       1.217      1.2193E-02
   9    9.990       8.965       7.921       6.857       5.774       4.671       3.545       2.394       1.217      1.2194E-02
  10    9.990       8.965       7.921       6.859       5.776       4.672       3.545       2.394       1.217      1.2194E-02

 HEAD WILL BE SAVED ON UNIT   51 AT END OF TIME STEP  15, STRESS PERIOD    3

 DRAWDOWN WILL BE SAVED ON UNIT   52 AT END OF TIME STEP  15, STRESS PERIOD    3
1
  VOLUMETRIC BUDGET FOR ENTIRE MODEL AT END OF TIME STEP 15 IN STRESS PERIOD   3
  ------------------------------------------------------------------------------

     CUMULATIVE VOLUMES      L**3       RATES FOR THIS TIME STEP      L**3/T
     ------------------                 ------------------------

           IN:                                      IN:
           ---                                      ---
             STORAGE =        4489.0283               STORAGE =         297.5307
       CONSTANT HEAD =           0.0000         CONSTANT HEAD =           0.0000
               WELLS =           0.0000                 WELLS =           0.0000
     HEAD DEP BOUNDS =       70736.5234       HEAD DEP BOUNDS =         611.8520

            TOTAL IN =       75225.5547              TOTAL IN =         909.3827

          OUT:                                     OUT:
          ----                                     ----
             STORAGE =           0.5746               STORAGE =       9.6703E-04
       CONSTANT HEAD =           0.0000         CONSTANT HEAD =           0.0000
               WELLS =        4500.0000                 WELLS =         300.0000
     HEAD DEP BOUNDS =       70722.6875       HEAD DEP BOUNDS =         609.3856

           TOTAL OUT =       75223.2656             TOTAL OUT =         909.3865

            IN - OUT =           2.2891              IN - OUT =      -3.8452E-03

 PERCENT DISCREPANCY =           0.00     PERCENT DISCREPANCY =           0.00






          TIME SUMMARY AT END OF TIME STEP  15 IN STRESS PERIOD    3
                    SECONDS     MINUTES      HOURS       DAYS        YEARS
                    -----------------------------------------------------------
   TIME STEP LENGTH  86400.      1440.0      24.000      1.0000     2.73785E-03
 STRESS PERIOD TIME 1.29600E+06  21600.      360.00      15.000     4.10678E-02
         TOTAL TIME 1.00224E+07 1.67040E+05  2784.0      116.00     0.31759    
1
 
 SOLVING FOR HEAD 

 OUTPUT CONTROL FOR STRESS PERIOD    3   TIME STEP  16
    SAVE HEAD FOR ALL LAYERS
    SAVE DRAWDOWN FOR ALL LAYERS
    SAVE BUDGET
    PRINT HEAD FOR ALL LAYERS
    PRINT BUDGET
 UBDSV1 SAVING "         STORAGE" ON UNIT  53 AT TIME STEP 16, STRESS PERIOD   3
 UBDSV2 SAVING "   CONSTANT HEAD" ON UNIT  53 AT TIME STEP 16, STRESS PERIOD   3
 UBDSV1 SAVING "FLOW RIGHT FACE " ON UNIT  53 AT TIME STEP 16, STRESS PERIOD   3
 UBDSV1 SAVING "FLOW FRONT FACE " ON UNIT  53 AT TIME STEP 16, STRESS PERIOD   3
1
              HEAD IN LAYER   1 AT END OF TIME STEP  16 IN STRESS PERIOD    3
  ---------------------------------------------------------------------------

            1           2           3           4           5           6           7           8           9          10
 ........................................................................................................................
   1    9.990       8.964       7.921       6.857       5.773       4.670       3.544       2.394       1.217      1.2193E-02
   2    9.990       8.964       7.918       6.849       5.759       4.662       3.542       2.393       1.217      1.2192E-02
   3    9.990       8.961       7.907       6.815       5.688       4.629       3.532       2.391       1.216      1.2188E-02
   4    9.990       8.955       7.878       6.701       5.378       4.512       3.502       2.385       1.215      1.2178E-02
   5    9.990       8.948       7.834       6.465       4.176       4.269       3.456       2.377       1.214      1.2166E-02
   6    9.990       8.955       7.878       6.701       5.378       4.512       3.502       2.385       1.215      1.2178E-02
   7    9.990       8.961       7.907       6.815       5.688       4.629       3.532       2.391       1.216      1.2188E-02
   8    9.990       8.964       7.918       6.849       5.759       4.663       3.542       2.393       1.217      1.2192E-02
   9    9.990       8.964       7.921       6.857       5.773       4.670       3.544       2.394       1.217      1.2193E-02
  10    9.990       8.965       7.921       6.859       5.776       4.672       3.545       2.394       1.217      1.2194E-02

 HEAD WILL BE SAVED ON UNIT   51 AT END OF TIME STEP  16, STRESS PERIOD    3

 DRAWDOWN WILL BE SAVED ON UNIT   52 AT END OF TIME STEP  16, STRESS PERIOD    3
1
  VOLUMETRIC BUDGET FOR ENTIRE MODEL AT END OF TIME STEP 16 IN STRESS PERIOD   3
  ------------------------------------------------------------------------------

     CUMULATIVE VOLUMES      L**3       RATES FOR THIS TIME STEP      L**3/T
     ------------------                 ------------------------

           IN:                                      IN:
           ---                                      ---
             STORAGE =        4786.0854               STORAGE =         297.0572
       CONSTANT HEAD =           0.0000         CONSTANT HEAD =           0.0000
               WELLS =           0.0000                 WELLS =           0.0000
     HEAD DEP BOUNDS =       71348.7734       HEAD DEP BOUNDS =         612.2520

            TOTAL IN =       76134.8594              TOTAL IN =         909.3092

          OUT:                                     OUT:
          ----                                     ----
             STORAGE =           0.5750               STORAGE =       4.5967E-04
       CONSTANT HEAD =           0.0000         CONSTANT HEAD =           0.0000
               WELLS =        4800.0000                 WELLS =         300.0000
     HEAD DEP BOUNDS =       71332.0000       HEAD DEP BOUNDS =         609.3104

           TOTAL OUT =       76132.5781             TOTAL OUT =         909.3109

            IN - OUT =           2.2812              IN - OUT =      -1.7090E-03

 PERCENT DISCREPANCY =           0.00     PERCENT DISCREPANCY =           0.00






          TIME SUMMARY AT END OF TIME STEP  16 IN STRESS PERIOD    3
                    SECONDS     MINUTES      HOURS       DAYS        YEARS
                    -----------------------------------------------------------
   TIME STEP LENGTH  86400.      1440.0      24.000      1.0000     2.73785E-03
 STRESS PERIOD TIME 1.38240E+06  23040.      384.00      16.000     4.38056E-02
         TOTAL TIME 1.01088E+07 1.68480E+05  2808.0      117.00     0.32033    
1
 
 SOLVING FOR HEAD 

 OUTPUT CONTROL FOR STRESS PERIOD    3   TIME STEP  17
    SAVE HEAD FOR ALL LAYERS
    SAVE DRAWDOWN FOR ALL LAYERS
    SAVE BUDGET
    PRINT HEAD FOR ALL LAYERS
    PRINT BUDGET
 UBDSV1 SAVING "         STORAGE" ON UNIT  53 AT TIME STEP 17, STRESS PERIOD   3
 UBDSV2 SAVING "   CONSTANT HEAD" ON UNIT  53 AT TIME STEP 17, STRESS PERIOD   3
 UBDSV1 SAVING "FLOW RIGHT FACE " ON UNIT  53 AT TIME STEP 17, STRESS PERIOD   3
 UBDSV1 SAVING "FLOW FRONT FACE " ON UNIT  53 AT TIME STEP 17, STRESS PERIOD   3
1
              HEAD IN LAYER   1 AT END OF TIME STEP  17 IN STRESS PERIOD    3
  ---------------------------------------------------------------------------

            1           2           3           4           5           6           7           8           9          10
 ........................................................................................................................
   1    9.990       8.964       7.920       6.856       5.772       4.669       3.544       2.394       1.217      1.2193E-02
   2    9.990       8.964       7.917       6.847       5.756       4.661       3.541       2.393       1.217      1.2192E-02
   3    9.990       8.961       7.905       6.810       5.680       4.623       3.529       2.390       1.216      1.2186E-02
   4    9.990       8.954       7.872       6.688       5.357       4.499       3.496       2.383       1.215      1.2174E-02
   5    9.990       8.945       7.826       6.445       4.142       4.248       3.448       2.374       1.214      1.2161E-02
   6    9.990       8.954       7.872       6.688       5.357       4.499       3.496       2.383       1.215      1.2174E-02
   7    9.990       8.961       7.905       6.810       5.680       4.623       3.529       2.390       1.216      1.2186E-02
   8    9.990       8.964       7.917       6.848       5.756       4.661       3.541       2.393       1.217      1.2192E-02
   9    9.990       8.964       7.920       6.857       5.773       4.670       3.544       2.394       1.217      1.2193E-02
  10    9.990       8.965       7.921       6.858       5.776       4.672       3.545       2.394       1.217      1.2194E-02

 HEAD WILL BE SAVED ON UNIT   51 AT END OF TIME STEP  17, STRESS PERIOD    3

 DRAWDOWN WILL BE SAVED ON UNIT   52 AT END OF TIME STEP  17, STRESS PERIOD    3
1
  VOLUMETRIC BUDGET FOR ENTIRE MODEL AT END OF TIME STEP 17 IN STRESS PERIOD   3
  ------------------------------------------------------------------------------

     CUMULATIVE VOLUMES      L**3       RATES FOR THIS TIME STEP      L**3/T
     ------------------                 ------------------------

           IN:                                      IN:
           ---                                      ---
             STORAGE =        5082.6250               STORAGE =         296.5397
       CONSTANT HEAD =           0.0000         CONSTANT HEAD =           0.0000
               WELLS =           0.0000                 WELLS =           0.0000
     HEAD DEP BOUNDS =       71961.4609       HEAD DEP BOUNDS =         612.6891

            TOTAL IN =       77044.0859              TOTAL IN =         909.2288

          OUT:                                     OUT:
          ----                                     ----
             STORAGE =           0.5756               STORAGE =       5.9891E-04
       CONSTANT HEAD =           0.0000         CONSTANT HEAD =           0.0000
               WELLS =        5100.0000                 WELLS =         300.0000
     HEAD DEP BOUNDS =       71941.2188       HEAD DEP BOUNDS =         609.2224

           TOTAL OUT =       77041.7969             TOTAL OUT =         909.2230

            IN - OUT =           2.2891              IN - OUT =       5.7373E-03

 PERCENT DISCREPANCY =           0.00     PERCENT DISCREPANCY =           0.00






          TIME SUMMARY AT END OF TIME STEP  17 IN STRESS PERIOD    3
                    SECONDS     MINUTES      HOURS       DAYS        YEARS
                    -----------------------------------------------------------
   TIME STEP LENGTH  86400.      1440.0      24.000      1.0000     2.73785E-03
 STRESS PERIOD TIME 1.46880E+06  24480.      408.00      17.000     4.65435E-02
         TOTAL TIME 1.01952E+07 1.69920E+05  2832.0      118.00     0.32307    
1
 
 SOLVING FOR HEAD 

 OUTPUT CONTROL FOR STRESS PERIOD    3   TIME STEP  18
    SAVE HEAD FOR ALL LAYERS
    SAVE DRAWDOWN FOR ALL LAYERS
    SAVE BUDGET
    PRINT HEAD FOR ALL LAYERS
    PRINT BUDGET
 UBDSV1 SAVING "         STORAGE" ON UNIT  53 AT TIME STEP 18, STRESS PERIOD   3
 UBDSV2 SAVING "   CONSTANT HEAD" ON UNIT  53 AT TIME STEP 18, STRESS PERIOD   3
 UBDSV1 SAVING "FLOW RIGHT FACE " ON UNIT  53 AT TIME STEP 18, STRESS PERIOD   3
 UBDSV1 SAVING "FLOW FRONT FACE " ON UNIT  53 AT TIME STEP 18, STRESS PERIOD   3
1
              HEAD IN LAYER   1 AT END OF TIME STEP  18 IN STRESS PERIOD    3
  ---------------------------------------------------------------------------

            1           2           3           4           5           6           7           8           9          10
 ........................................................................................................................
   1    9.990       8.964       7.920       6.856       5.771       4.669       3.544       2.394       1.217      1.2193E-02
   2    9.990       8.963       7.916       6.846       5.754       4.659       3.540       2.393       1.217      1.2191E-02
   3    9.990       8.960       7.903       6.804       5.671       4.617       3.527       2.389       1.216      1.2184E-02
   4    9.990       8.952       7.867       6.674       5.337       4.485       3.490       2.381       1.214      1.2170E-02
   5    9.990       8.943       7.818       6.425       4.111       4.227       3.439       2.372       1.213      1.2155E-02
   6    9.990       8.952       7.867       6.674       5.337       4.485       3.490       2.381       1.214      1.2170E-02
   7    9.990       8.960       7.903       6.804       5.671       4.617       3.527       2.389       1.216      1.2184E-02
   8    9.990       8.963       7.916       6.846       5.754       4.659       3.540       2.393       1.217      1.2191E-02
   9    9.990       8.964       7.920       6.856       5.772       4.669       3.544       2.394       1.217      1.2193E-02
  10    9.990       8.965       7.921       6.858       5.775       4.672       3.545       2.394       1.217      1.2194E-02

 HEAD WILL BE SAVED ON UNIT   51 AT END OF TIME STEP  18, STRESS PERIOD    3

 DRAWDOWN WILL BE SAVED ON UNIT   52 AT END OF TIME STEP  18, STRESS PERIOD    3
1
  VOLUMETRIC BUDGET FOR ENTIRE MODEL AT END OF TIME STEP 18 IN STRESS PERIOD   3
  ------------------------------------------------------------------------------

     CUMULATIVE VOLUMES      L**3       RATES FOR THIS TIME STEP      L**3/T
     ------------------                 ------------------------

           IN:                                      IN:
           ---                                      ---
             STORAGE =        5378.5928               STORAGE =         295.9678
       CONSTANT HEAD =           0.0000         CONSTANT HEAD =           0.0000
               WELLS =           0.0000                 WELLS =           0.0000
     HEAD DEP BOUNDS =       72574.6172       HEAD DEP BOUNDS =         613.1559

            TOTAL IN =       77953.2109              TOTAL IN =         909.1238

          OUT:                                     OUT:
          ----                                     ----
             STORAGE =           0.5759               STORAGE =       2.8038E-04
       CONSTANT HEAD =           0.0000         CONSTANT HEAD =           0.0000
               WELLS =        5400.0000                 WELLS =         300.0000
     HEAD DEP BOUNDS =       72550.3438       HEAD DEP BOUNDS =         609.1260

           TOTAL OUT =       77950.9219             TOTAL OUT =         909.1262

            IN - OUT =           2.2891              IN - OUT =      -2.4414E-03

 PERCENT DISCREPANCY =           0.00     PERCENT DISCREPANCY =           0.00






          TIME SUMMARY AT END OF TIME STEP  18 IN STRESS PERIOD    3
                    SECONDS     MINUTES      HOURS       DAYS        YEARS
                    -----------------------------------------------------------
   TIME STEP LENGTH  86400.      1440.0      24.000      1.0000     2.73785E-03
 STRESS PERIOD TIME 1.55520E+06  25920.      432.00      18.000     4.92813E-02
         TOTAL TIME 1.02816E+07 1.71360E+05  2856.0      119.00     0.32580    
1
 
 SOLVING FOR HEAD 

 OUTPUT CONTROL FOR STRESS PERIOD    3   TIME STEP  19
    SAVE HEAD FOR ALL LAYERS
    SAVE DRAWDOWN FOR ALL LAYERS
    SAVE BUDGET
    PRINT HEAD FOR ALL LAYERS
    PRINT BUDGET
 UBDSV1 SAVING "         STORAGE" ON UNIT  53 AT TIME STEP 19, STRESS PERIOD   3
 UBDSV2 SAVING "   CONSTANT HEAD" ON UNIT  53 AT TIME STEP 19, STRESS PERIOD   3
 UBDSV1 SAVING "FLOW RIGHT FACE " ON UNIT  53 AT TIME STEP 19, STRESS PERIOD   3
 UBDSV1 SAVING "FLOW FRONT FACE " ON UNIT  53 AT TIME STEP 19, STRESS PERIOD   3
1
              HEAD IN LAYER   1 AT END OF TIME STEP  19 IN STRESS PERIOD    3
  ---------------------------------------------------------------------------

            1           2           3           4           5           6           7           8           9          10
 ........................................................................................................................
   1    9.990       8.964       7.920       6.855       5.770       4.668       3.544       2.394       1.217      1.2193E-02
   2    9.990       8.963       7.915       6.844       5.751       4.657       3.539       2.392       1.217      1.2190E-02
   3    9.990       8.959       7.900       6.798       5.663       4.611       3.524       2.388       1.216      1.2182E-02
   4    9.990       8.950       7.861       6.661       5.317       4.471       3.484       2.379       1.214      1.2165E-02
   5    9.990       8.941       7.809       6.405       4.081       4.207       3.430       2.369       1.212      1.2149E-02
   6    9.990       8.950       7.861       6.661       5.317       4.471       3.484       2.379       1.214      1.2165E-02
   7    9.990       8.959       7.900       6.798       5.663       4.611       3.524       2.388       1.216      1.2182E-02
   8    9.990       8.963       7.915       6.844       5.751       4.657       3.539       2.392       1.217      1.2190E-02
   9    9.990       8.964       7.920       6.856       5.771       4.669       3.544       2.394       1.217      1.2193E-02
  10    9.990       8.965       7.921       6.858       5.775       4.671       3.545       2.394       1.217      1.2194E-02

 HEAD WILL BE SAVED ON UNIT   51 AT END OF TIME STEP  19, STRESS PERIOD    3

 DRAWDOWN WILL BE SAVED ON UNIT   52 AT END OF TIME STEP  19, STRESS PERIOD    3
1
  VOLUMETRIC BUDGET FOR ENTIRE MODEL AT END OF TIME STEP 19 IN STRESS PERIOD   3
  ------------------------------------------------------------------------------

     CUMULATIVE VOLUMES      L**3       RATES FOR THIS TIME STEP      L**3/T
     ------------------                 ------------------------

           IN:                                      IN:
           ---                                      ---
             STORAGE =        5673.9526               STORAGE =         295.3599
       CONSTANT HEAD =           0.0000         CONSTANT HEAD =           0.0000
               WELLS =           0.0000                 WELLS =           0.0000
     HEAD DEP BOUNDS =       73188.2656       HEAD DEP BOUNDS =         613.6516

            TOTAL IN =       78862.2188              TOTAL IN =         909.0115

          OUT:                                     OUT:
          ----                                     ----
             STORAGE =           0.5769               STORAGE =       9.6035E-04
       CONSTANT HEAD =           0.0000         CONSTANT HEAD =           0.0000
               WELLS =        5700.0000                 WELLS =         300.0000
     HEAD DEP BOUNDS =       73159.3594       HEAD DEP BOUNDS =         609.0134

           TOTAL OUT =       78859.9375             TOTAL OUT =         909.0144

            IN - OUT =           2.2812              IN - OUT =      -2.9297E-03

 PERCENT DISCREPANCY =           0.00     PERCENT DISCREPANCY =           0.00






          TIME SUMMARY AT END OF TIME STEP  19 IN STRESS PERIOD    3
                    SECONDS     MINUTES      HOURS       DAYS        YEARS
                    -----------------------------------------------------------
   TIME STEP LENGTH  86400.      1440.0      24.000      1.0000     2.73785E-03
 STRESS PERIOD TIME 1.64160E+06  27360.      456.00      19.000     5.20192E-02
         TOTAL TIME 1.03680E+07 1.72800E+05  2880.0      120.00     0.32854    
1
 
 SOLVING FOR HEAD 

 OUTPUT CONTROL FOR STRESS PERIOD    3   TIME STEP  20
    SAVE HEAD FOR ALL LAYERS
    SAVE DRAWDOWN FOR ALL LAYERS
    SAVE BUDGET
    PRINT HEAD FOR ALL LAYERS
    PRINT BUDGET
 UBDSV1 SAVING "         STORAGE" ON UNIT  53 AT TIME STEP 20, STRESS PERIOD   3
 UBDSV2 SAVING "   CONSTANT HEAD" ON UNIT  53 AT TIME STEP 20, STRESS PERIOD   3
 UBDSV1 SAVING "FLOW RIGHT FACE " ON UNIT  53 AT TIME STEP 20, STRESS PERIOD   3
 UBDSV1 SAVING "FLOW FRONT FACE " ON UNIT  53 AT TIME STEP 20, STRESS PERIOD   3
1
              HEAD IN LAYER   1 AT END OF TIME STEP  20 IN STRESS PERIOD    3
  ---------------------------------------------------------------------------

            1           2           3           4           5           6           7           8           9          10
 ........................................................................................................................
   1    9.990       8.964       7.919       6.854       5.769       4.668       3.543       2.393       1.217      1.2192E-02
   2    9.990       8.963       7.914       6.842       5.748       4.655       3.538       2.392       1.216      1.2189E-02
   3    9.990       8.958       7.897       6.792       5.654       4.605       3.521       2.387       1.216      1.2180E-02
   4    9.990       8.948       7.855       6.648       5.298       4.458       3.478       2.377       1.213      1.2160E-02
   5    9.990       8.938       7.801       6.387       4.053       4.188       3.422       2.366       1.212      1.2141E-02
   6    9.990       8.948       7.855       6.648       5.298       4.458       3.478       2.377       1.213      1.2160E-02
   7    9.990       8.958       7.897       6.792       5.654       4.605       3.521       2.387       1.216      1.2180E-02
   8    9.990       8.963       7.914       6.842       5.748       4.655       3.539       2.392       1.216      1.2189E-02
   9    9.990       8.964       7.920       6.855       5.770       4.668       3.544       2.394       1.217      1.2193E-02
  10    9.990       8.965       7.921       6.858       5.775       4.671       3.545       2.394       1.217      1.2194E-02

 HEAD WILL BE SAVED ON UNIT   51 AT END OF TIME STEP  20, STRESS PERIOD    3

 DRAWDOWN WILL BE SAVED ON UNIT   52 AT END OF TIME STEP  20, STRESS PERIOD    3
1
  VOLUMETRIC BUDGET FOR ENTIRE MODEL AT END OF TIME STEP 20 IN STRESS PERIOD   3
  ------------------------------------------------------------------------------

     CUMULATIVE VOLUMES      L**3       RATES FOR THIS TIME STEP      L**3/T
     ------------------                 ------------------------

           IN:                                      IN:
           ---                                      ---
             STORAGE =        5968.6494               STORAGE =         294.6969
       CONSTANT HEAD =           0.0000         CONSTANT HEAD =           0.0000
               WELLS =           0.0000                 WELLS =           0.0000
     HEAD DEP BOUNDS =       73802.4531       HEAD DEP BOUNDS =         614.1882

            TOTAL IN =       79771.1016              TOTAL IN =         908.8851

          OUT:                                     OUT:
          ----                                     ----
             STORAGE =           0.5773               STORAGE =       3.9959E-04
       CONSTANT HEAD =           0.0000         CONSTANT HEAD =           0.0000
               WELLS =        6000.0000                 WELLS =         300.0000
     HEAD DEP BOUNDS =       73768.2500       HEAD DEP BOUNDS =         608.8892

           TOTAL OUT =       79768.8281             TOTAL OUT =         908.8896

            IN - OUT =           2.2734              IN - OUT =      -4.5166E-03

 PERCENT DISCREPANCY =           0.00     PERCENT DISCREPANCY =           0.00






          TIME SUMMARY AT END OF TIME STEP  20 IN STRESS PERIOD    3
                    SECONDS     MINUTES      HOURS       DAYS        YEARS
                    -----------------------------------------------------------
   TIME STEP LENGTH  86400.      1440.0      24.000      1.0000     2.73785E-03
 STRESS PERIOD TIME 1.72800E+06  28800.      480.00      20.000     5.47570E-02
         TOTAL TIME 1.04544E+07 1.74240E+05  2904.0      121.00     0.33128    
1
 
 SOLVING FOR HEAD 

 OUTPUT CONTROL FOR STRESS PERIOD    3   TIME STEP  21
    SAVE HEAD FOR ALL LAYERS
    SAVE DRAWDOWN FOR ALL LAYERS
    SAVE BUDGET
    PRINT HEAD FOR ALL LAYERS
    PRINT BUDGET
 UBDSV1 SAVING "         STORAGE" ON UNIT  53 AT TIME STEP 21, STRESS PERIOD   3
 UBDSV2 SAVING "   CONSTANT HEAD" ON UNIT  53 AT TIME STEP 21, STRESS PERIOD   3
 UBDSV1 SAVING "FLOW RIGHT FACE " ON UNIT  53 AT TIME STEP 21, STRESS PERIOD   3
 UBDSV1 SAVING "FLOW FRONT FACE " ON UNIT  53 AT TIME STEP 21, STRESS PERIOD   3
1
              HEAD IN LAYER   1 AT END OF TIME STEP  21 IN STRESS PERIOD    3
  ---------------------------------------------------------------------------

            1           2           3           4           5           6           7           8           9          10
 ........................................................................................................................
   1    9.990       8.964       7.919       6.854       5.768       4.667       3.543       2.393       1.217      1.2192E-02
   2    9.990       8.962       7.913       6.839       5.745       4.653       3.537       2.392       1.216      1.2188E-02
   3    9.990       8.957       7.894       6.786       5.646       4.599       3.518       2.386       1.215      1.2177E-02
   4    9.990       8.946       7.849       6.635       5.280       4.445       3.472       2.375       1.213      1.2154E-02
   5    9.990       8.935       7.793       6.369       4.027       4.169       3.413       2.363       1.211      1.2134E-02
   6    9.990       8.946       7.849       6.635       5.280       4.445       3.472       2.375       1.213      1.2154E-02
   7    9.990       8.957       7.894       6.786       5.646       4.599       3.518       2.386       1.215      1.2177E-02
   8    9.990       8.962       7.913       6.840       5.746       4.653       3.537       2.392       1.216      1.2188E-02
   9    9.990       8.964       7.919       6.854       5.770       4.668       3.543       2.393       1.217      1.2192E-02
  10    9.990       8.965       7.921       6.858       5.775       4.671       3.545       2.394       1.217      1.2193E-02

 HEAD WILL BE SAVED ON UNIT   51 AT END OF TIME STEP  21, STRESS PERIOD    3

 DRAWDOWN WILL BE SAVED ON UNIT   52 AT END OF TIME STEP  21, STRESS PERIOD    3
1
  VOLUMETRIC BUDGET FOR ENTIRE MODEL AT END OF TIME STEP 21 IN STRESS PERIOD   3
  ------------------------------------------------------------------------------

     CUMULATIVE VOLUMES      L**3       RATES FOR THIS TIME STEP      L**3/T
     ------------------                 ------------------------

           IN:                                      IN:
           ---                                      ---
             STORAGE =        6262.6455               STORAGE =         293.9963
       CONSTANT HEAD =           0.0000         CONSTANT HEAD =           0.0000
               WELLS =           0.0000                 WELLS =           0.0000
     HEAD DEP BOUNDS =       74417.2031       HEAD DEP BOUNDS =         614.7516

            TOTAL IN =       80679.8516              TOTAL IN =         908.7479

          OUT:                                     OUT:
          ----                                     ----
             STORAGE =           0.5774               STORAGE =       7.7248E-05
       CONSTANT HEAD =           0.0000         CONSTANT HEAD =           0.0000
               WELLS =        6300.0000                 WELLS =         300.0000
     HEAD DEP BOUNDS =       74377.0000       HEAD DEP BOUNDS =         608.7524

           TOTAL OUT =       80677.5781             TOTAL OUT =         908.7524

            IN - OUT =           2.2734              IN - OUT =      -4.5166E-03

 PERCENT DISCREPANCY =           0.00     PERCENT DISCREPANCY =           0.00






          TIME SUMMARY AT END OF TIME STEP  21 IN STRESS PERIOD    3
                    SECONDS     MINUTES      HOURS       DAYS        YEARS
                    -----------------------------------------------------------
   TIME STEP LENGTH  86400.      1440.0      24.000      1.0000     2.73785E-03
 STRESS PERIOD TIME 1.81440E+06  30240.      504.00      21.000     5.74949E-02
         TOTAL TIME 1.05408E+07 1.75680E+05  2928.0      122.00     0.33402    
1
 
 SOLVING FOR HEAD 

 OUTPUT CONTROL FOR STRESS PERIOD    3   TIME STEP  22
    SAVE HEAD FOR ALL LAYERS
    SAVE DRAWDOWN FOR ALL LAYERS
    SAVE BUDGET
    PRINT HEAD FOR ALL LAYERS
    PRINT BUDGET
 UBDSV1 SAVING "         STORAGE" ON UNIT  53 AT TIME STEP 22, STRESS PERIOD   3
 UBDSV2 SAVING "   CONSTANT HEAD" ON UNIT  53 AT TIME STEP 22, STRESS PERIOD   3
 UBDSV1 SAVING "FLOW RIGHT FACE " ON UNIT  53 AT TIME STEP 22, STRESS PERIOD   3
 UBDSV1 SAVING "FLOW FRONT FACE " ON UNIT  53 AT TIME STEP 22, STRESS PERIOD   3
1
              HEAD IN LAYER   1 AT END OF TIME STEP  22 IN STRESS PERIOD    3
  ---------------------------------------------------------------------------

            1           2           3           4           5           6           7           8           9          10
 ........................................................................................................................
   1    9.990       8.964       7.919       6.853       5.767       4.666       3.542       2.393       1.217      1.2192E-02
   2    9.990       8.962       7.912       6.837       5.742       4.650       3.536       2.391       1.216      1.2187E-02
   3    9.990       8.956       7.891       6.780       5.638       4.593       3.515       2.385       1.215      1.2174E-02
   4    9.990       8.944       7.843       6.623       5.262       4.432       3.466       2.373       1.212      1.2148E-02
   5    9.990       8.932       7.785       6.352       4.002       4.152       3.405       2.360       1.210      1.2126E-02
   6    9.990       8.944       7.843       6.623       5.262       4.432       3.466       2.373       1.212      1.2148E-02
   7    9.990       8.956       7.891       6.780       5.638       4.593       3.515       2.385       1.215      1.2174E-02
   8    9.990       8.962       7.912       6.837       5.742       4.651       3.536       2.391       1.216      1.2187E-02
   9    9.990       8.964       7.919       6.854       5.769       4.667       3.543       2.393       1.217      1.2192E-02
  10    9.990       8.964       7.921       6.858       5.774       4.671       3.545       2.394       1.217      1.2193E-02

 HEAD WILL BE SAVED ON UNIT   51 AT END OF TIME STEP  22, STRESS PERIOD    3

 DRAWDOWN WILL BE SAVED ON UNIT   52 AT END OF TIME STEP  22, STRESS PERIOD    3
1
  VOLUMETRIC BUDGET FOR ENTIRE MODEL AT END OF TIME STEP 22 IN STRESS PERIOD   3
  ------------------------------------------------------------------------------

     CUMULATIVE VOLUMES      L**3       RATES FOR THIS TIME STEP      L**3/T
     ------------------                 ------------------------

           IN:                                      IN:
           ---                                      ---
             STORAGE =        6555.8916               STORAGE =         293.2461
       CONSTANT HEAD =           0.0000         CONSTANT HEAD =           0.0000
               WELLS =           0.0000                 WELLS =           0.0000
     HEAD DEP BOUNDS =       75032.5469       HEAD DEP BOUNDS =         615.3474

            TOTAL IN =       81588.4375              TOTAL IN =         908.5935

          OUT:                                     OUT:
          ----                                     ----
             STORAGE =           0.5774               STORAGE =       9.6321E-05
       CONSTANT HEAD =           0.0000         CONSTANT HEAD =           0.0000
               WELLS =        6600.0000                 WELLS =         300.0000
     HEAD DEP BOUNDS =       74985.6016       HEAD DEP BOUNDS =         608.6009

           TOTAL OUT =       81586.1797             TOTAL OUT =         908.6010

            IN - OUT =           2.2578              IN - OUT =      -7.4463E-03

 PERCENT DISCREPANCY =           0.00     PERCENT DISCREPANCY =           0.00






          TIME SUMMARY AT END OF TIME STEP  22 IN STRESS PERIOD    3
                    SECONDS     MINUTES      HOURS       DAYS        YEARS
                    -----------------------------------------------------------
   TIME STEP LENGTH  86400.      1440.0      24.000      1.0000     2.73785E-03
 STRESS PERIOD TIME 1.90080E+06  31680.      528.00      22.000     6.02327E-02
         TOTAL TIME 1.06272E+07 1.77120E+05  2952.0      123.00     0.33676    
1
 
 SOLVING FOR HEAD 

 OUTPUT CONTROL FOR STRESS PERIOD    3   TIME STEP  23
    SAVE HEAD FOR ALL LAYERS
    SAVE DRAWDOWN FOR ALL LAYERS
    SAVE BUDGET
    PRINT HEAD FOR ALL LAYERS
    PRINT BUDGET
 UBDSV1 SAVING "         STORAGE" ON UNIT  53 AT TIME STEP 23, STRESS PERIOD   3
 UBDSV2 SAVING "   CONSTANT HEAD" ON UNIT  53 AT TIME STEP 23, STRESS PERIOD   3
 UBDSV1 SAVING "FLOW RIGHT FACE " ON UNIT  53 AT TIME STEP 23, STRESS PERIOD   3
 UBDSV1 SAVING "FLOW FRONT FACE " ON UNIT  53 AT TIME STEP 23, STRESS PERIOD   3
1
              HEAD IN LAYER   1 AT END OF TIME STEP  23 IN STRESS PERIOD    3
  ---------------------------------------------------------------------------

            1           2           3           4           5           6           7           8           9          10
 ........................................................................................................................
   1    9.990       8.964       7.918       6.852       5.766       4.665       3.542       2.393       1.217      1.2191E-02
   2    9.990       8.961       7.911       6.835       5.739       4.648       3.535       2.391       1.216      1.2186E-02
   3    9.990       8.955       7.888       6.774       5.629       4.586       3.512       2.384       1.215      1.2170E-02
   4    9.990       8.942       7.837       6.610       5.246       4.419       3.459       2.370       1.212      1.2141E-02
   5    9.990       8.930       7.777       6.335       3.979       4.134       3.396       2.357       1.209      1.2117E-02
   6    9.990       8.942       7.837       6.610       5.246       4.419       3.459       2.370       1.212      1.2141E-02
   7    9.990       8.955       7.888       6.774       5.629       4.586       3.512       2.384       1.215      1.2170E-02
   8    9.990       8.961       7.911       6.835       5.739       4.648       3.535       2.391       1.216      1.2186E-02
   9    9.990       8.964       7.919       6.853       5.768       4.666       3.543       2.393       1.217      1.2191E-02
  10    9.990       8.964       7.921       6.857       5.774       4.671       3.544       2.394       1.217      1.2193E-02

 HEAD WILL BE SAVED ON UNIT   51 AT END OF TIME STEP  23, STRESS PERIOD    3

 DRAWDOWN WILL BE SAVED ON UNIT   52 AT END OF TIME STEP  23, STRESS PERIOD    3
1
  VOLUMETRIC BUDGET FOR ENTIRE MODEL AT END OF TIME STEP 23 IN STRESS PERIOD   3
  ------------------------------------------------------------------------------

     CUMULATIVE VOLUMES      L**3       RATES FOR THIS TIME STEP      L**3/T
     ------------------                 ------------------------

           IN:                                      IN:
           ---                                      ---
             STORAGE =        6848.3491               STORAGE =         292.4577
       CONSTANT HEAD =           0.0000         CONSTANT HEAD =           0.0000
               WELLS =           0.0000                 WELLS =           0.0000
     HEAD DEP BOUNDS =       75648.5234       HEAD DEP BOUNDS =         615.9739

            TOTAL IN =       82496.8750              TOTAL IN =         908.4316

          OUT:                                     OUT:
          ----                                     ----
             STORAGE =           0.5775               STORAGE =       8.0109E-05
       CONSTANT HEAD =           0.0000         CONSTANT HEAD =           0.0000
               WELLS =        6900.0000                 WELLS =         300.0000
     HEAD DEP BOUNDS =       75594.0391       HEAD DEP BOUNDS =         608.4362

           TOTAL OUT =       82494.6172             TOTAL OUT =         908.4363

            IN - OUT =           2.2578              IN - OUT =      -4.6387E-03

 PERCENT DISCREPANCY =           0.00     PERCENT DISCREPANCY =           0.00






          TIME SUMMARY AT END OF TIME STEP  23 IN STRESS PERIOD    3
                    SECONDS     MINUTES      HOURS       DAYS        YEARS
                    -----------------------------------------------------------
   TIME STEP LENGTH  86400.      1440.0      24.000      1.0000     2.73785E-03
 STRESS PERIOD TIME 1.98720E+06  33120.      552.00      23.000     6.29706E-02
         TOTAL TIME 1.07136E+07 1.78560E+05  2976.0      124.00     0.33949    
1
 
 SOLVING FOR HEAD 

 OUTPUT CONTROL FOR STRESS PERIOD    3   TIME STEP  24
    SAVE HEAD FOR ALL LAYERS
    SAVE DRAWDOWN FOR ALL LAYERS
    SAVE BUDGET
    PRINT HEAD FOR ALL LAYERS
    PRINT BUDGET
 UBDSV1 SAVING "         STORAGE" ON UNIT  53 AT TIME STEP 24, STRESS PERIOD   3
 UBDSV2 SAVING "   CONSTANT HEAD" ON UNIT  53 AT TIME STEP 24, STRESS PERIOD   3
 UBDSV1 SAVING "FLOW RIGHT FACE " ON UNIT  53 AT TIME STEP 24, STRESS PERIOD   3
 UBDSV1 SAVING "FLOW FRONT FACE " ON UNIT  53 AT TIME STEP 24, STRESS PERIOD   3
1
              HEAD IN LAYER   1 AT END OF TIME STEP  24 IN STRESS PERIOD    3
  ---------------------------------------------------------------------------

            1           2           3           4           5           6           7           8           9          10
 ........................................................................................................................
   1    9.990       8.963       7.917       6.851       5.765       4.664       3.541       2.393       1.217      1.2190E-02
   2    9.990       8.961       7.909       6.832       5.736       4.646       3.534       2.390       1.216      1.2184E-02
   3    9.990       8.954       7.885       6.767       5.621       4.580       3.509       2.383       1.214      1.2166E-02
   4    9.990       8.940       7.831       6.598       5.229       4.406       3.453       2.368       1.211      1.2134E-02
   5    9.989       8.927       7.769       6.319       3.957       4.118       3.388       2.354       1.208      1.2108E-02
   6    9.990       8.940       7.831       6.598       5.229       4.406       3.453       2.368       1.211      1.2134E-02
   7    9.990       8.954       7.885       6.767       5.621       4.580       3.509       2.383       1.214      1.2167E-02
   8    9.990       8.961       7.910       6.832       5.736       4.646       3.534       2.390       1.216      1.2184E-02
   9    9.990       8.964       7.918       6.852       5.767       4.666       3.542       2.393       1.217      1.2191E-02
  10    9.990       8.964       7.920       6.857       5.774       4.670       3.544       2.394       1.217      1.2193E-02

 HEAD WILL BE SAVED ON UNIT   51 AT END OF TIME STEP  24, STRESS PERIOD    3

 DRAWDOWN WILL BE SAVED ON UNIT   52 AT END OF TIME STEP  24, STRESS PERIOD    3
1
  VOLUMETRIC BUDGET FOR ENTIRE MODEL AT END OF TIME STEP 24 IN STRESS PERIOD   3
  ------------------------------------------------------------------------------

     CUMULATIVE VOLUMES      L**3       RATES FOR THIS TIME STEP      L**3/T
     ------------------                 ------------------------

           IN:                                      IN:
           ---                                      ---
             STORAGE =        7139.9844               STORAGE =         291.6352
       CONSTANT HEAD =           0.0000         CONSTANT HEAD =           0.0000
               WELLS =           0.0000                 WELLS =           0.0000
     HEAD DEP BOUNDS =       76265.1641       HEAD DEP BOUNDS =         616.6368

            TOTAL IN =       83405.1484              TOTAL IN =         908.2720

          OUT:                                     OUT:
          ----                                     ----
             STORAGE =           0.5775               STORAGE =           0.0000
       CONSTANT HEAD =           0.0000         CONSTANT HEAD =           0.0000
               WELLS =        7200.0000                 WELLS =         300.0000
     HEAD DEP BOUNDS =       76202.2969       HEAD DEP BOUNDS =         608.2615

           TOTAL OUT =       83402.8750             TOTAL OUT =         908.2615

            IN - OUT =           2.2734              IN - OUT =       1.0559E-02

 PERCENT DISCREPANCY =           0.00     PERCENT DISCREPANCY =           0.00






          TIME SUMMARY AT END OF TIME STEP  24 IN STRESS PERIOD    3
                    SECONDS     MINUTES      HOURS       DAYS        YEARS
                    -----------------------------------------------------------
   TIME STEP LENGTH  86400.      1440.0      24.000      1.0000     2.73785E-03
 STRESS PERIOD TIME 2.07360E+06  34560.      576.00      24.000     6.57084E-02
         TOTAL TIME 1.08000E+07 1.80000E+05  3000.0      125.00     0.34223    
1
 
 SOLVING FOR HEAD 

 OUTPUT CONTROL FOR STRESS PERIOD    3   TIME STEP  25
    SAVE HEAD FOR ALL LAYERS
    SAVE DRAWDOWN FOR ALL LAYERS
    SAVE BUDGET
    PRINT HEAD FOR ALL LAYERS
    PRINT BUDGET
 UBDSV1 SAVING "         STORAGE" ON UNIT  53 AT TIME STEP 25, STRESS PERIOD   3
 UBDSV2 SAVING "   CONSTANT HEAD" ON UNIT  53 AT TIME STEP 25, STRESS PERIOD   3
 UBDSV1 SAVING "FLOW RIGHT FACE " ON UNIT  53 AT TIME STEP 25, STRESS PERIOD   3
 UBDSV1 SAVING "FLOW FRONT FACE " ON UNIT  53 AT TIME STEP 25, STRESS PERIOD   3
1
              HEAD IN LAYER   1 AT END OF TIME STEP  25 IN STRESS PERIOD    3
  ---------------------------------------------------------------------------

            1           2           3           4           5           6           7           8           9          10
 ........................................................................................................................
   1    9.990       8.963       7.917       6.850       5.764       4.663       3.541       2.392       1.217      1.2190E-02
   2    9.990       8.960       7.908       6.830       5.733       4.643       3.532       2.390       1.216      1.2182E-02
   3    9.990       8.952       7.881       6.761       5.613       4.574       3.505       2.381       1.214      1.2162E-02
   4    9.990       8.937       7.824       6.586       5.213       4.394       3.446       2.365       1.210      1.2127E-02
   5    9.989       8.924       7.761       6.304       3.936       4.102       3.379       2.351       1.207      1.2098E-02
   6    9.990       8.937       7.824       6.586       5.213       4.394       3.446       2.365       1.210      1.2127E-02
   7    9.990       8.952       7.881       6.761       5.613       4.574       3.505       2.381       1.214      1.2162E-02
   8    9.990       8.960       7.908       6.830       5.733       4.643       3.532       2.390       1.216      1.2183E-02
   9    9.990       8.963       7.918       6.851       5.766       4.665       3.542       2.393       1.217      1.2190E-02
  10    9.990       8.964       7.920       6.857       5.774       4.670       3.544       2.394       1.217      1.2193E-02

 HEAD WILL BE SAVED ON UNIT   51 AT END OF TIME STEP  25, STRESS PERIOD    3

 DRAWDOWN WILL BE SAVED ON UNIT   52 AT END OF TIME STEP  25, STRESS PERIOD    3
1
  VOLUMETRIC BUDGET FOR ENTIRE MODEL AT END OF TIME STEP 25 IN STRESS PERIOD   3
  ------------------------------------------------------------------------------

     CUMULATIVE VOLUMES      L**3       RATES FOR THIS TIME STEP      L**3/T
     ------------------                 ------------------------

           IN:                                      IN:
           ---                                      ---
             STORAGE =        7430.7437               STORAGE =         290.7594
       CONSTANT HEAD =           0.0000         CONSTANT HEAD =           0.0000
               WELLS =           0.0000                 WELLS =           0.0000
     HEAD DEP BOUNDS =       76882.4531       HEAD DEP BOUNDS =         617.2883

            TOTAL IN =       84313.1953              TOTAL IN =         908.0477

          OUT:                                     OUT:
          ----                                     ----
             STORAGE =           0.5779               STORAGE =       4.0150E-04
       CONSTANT HEAD =           0.0000         CONSTANT HEAD =           0.0000
               WELLS =        7500.0000                 WELLS =         300.0000
     HEAD DEP BOUNDS =       76810.3672       HEAD DEP BOUNDS =         608.0668

           TOTAL OUT =       84310.9453             TOTAL OUT =         908.0671

            IN - OUT =           2.2500              IN - OUT =      -1.9409E-02

 PERCENT DISCREPANCY =           0.00     PERCENT DISCREPANCY =           0.00






          TIME SUMMARY AT END OF TIME STEP  25 IN STRESS PERIOD    3
                    SECONDS     MINUTES      HOURS       DAYS        YEARS
                    -----------------------------------------------------------
   TIME STEP LENGTH  86400.      1440.0      24.000      1.0000     2.73785E-03
 STRESS PERIOD TIME 2.16000E+06  36000.      600.00      25.000     6.84463E-02
         TOTAL TIME 1.08864E+07 1.81440E+05  3024.0      126.00     0.34497    
1
 
 SOLVING FOR HEAD 

 OUTPUT CONTROL FOR STRESS PERIOD    3   TIME STEP  26
    SAVE HEAD FOR ALL LAYERS
    SAVE DRAWDOWN FOR ALL LAYERS
    SAVE BUDGET
    PRINT HEAD FOR ALL LAYERS
    PRINT BUDGET
 UBDSV1 SAVING "         STORAGE" ON UNIT  53 AT TIME STEP 26, STRESS PERIOD   3
 UBDSV2 SAVING "   CONSTANT HEAD" ON UNIT  53 AT TIME STEP 26, STRESS PERIOD   3
 UBDSV1 SAVING "FLOW RIGHT FACE " ON UNIT  53 AT TIME STEP 26, STRESS PERIOD   3
 UBDSV1 SAVING "FLOW FRONT FACE " ON UNIT  53 AT TIME STEP 26, STRESS PERIOD   3
1
              HEAD IN LAYER   1 AT END OF TIME STEP  26 IN STRESS PERIOD    3
  ---------------------------------------------------------------------------

            1           2           3           4           5           6           7           8           9          10
 ........................................................................................................................
   1    9.990       8.963       7.916       6.849       5.762       4.662       3.540       2.392       1.216      1.2189E-02
   2    9.990       8.960       7.907       6.827       5.729       4.640       3.531       2.389       1.216      1.2180E-02
   3    9.990       8.951       7.878       6.755       5.605       4.567       3.502       2.380       1.213      1.2158E-02
   4    9.990       8.935       7.818       6.574       5.198       4.382       3.440       2.363       1.209      1.2118E-02
   5    9.989       8.921       7.753       6.289       3.916       4.086       3.371       2.347       1.206      1.2088E-02
   6    9.990       8.935       7.818       6.574       5.198       4.382       3.440       2.363       1.209      1.2118E-02
   7    9.990       8.951       7.878       6.755       5.605       4.567       3.502       2.380       1.213      1.2158E-02
   8    9.990       8.960       7.907       6.827       5.730       4.641       3.531       2.389       1.216      1.2181E-02
   9    9.990       8.963       7.917       6.850       5.765       4.664       3.541       2.393       1.217      1.2190E-02
  10    9.990       8.964       7.920       6.857       5.773       4.670       3.544       2.394       1.217      1.2193E-02

 HEAD WILL BE SAVED ON UNIT   51 AT END OF TIME STEP  26, STRESS PERIOD    3

 DRAWDOWN WILL BE SAVED ON UNIT   52 AT END OF TIME STEP  26, STRESS PERIOD    3
1
  VOLUMETRIC BUDGET FOR ENTIRE MODEL AT END OF TIME STEP 26 IN STRESS PERIOD   3
  ------------------------------------------------------------------------------

     CUMULATIVE VOLUMES      L**3       RATES FOR THIS TIME STEP      L**3/T
     ------------------                 ------------------------

           IN:                                      IN:
           ---                                      ---
             STORAGE =        7720.6006               STORAGE =         289.8568
       CONSTANT HEAD =           0.0000         CONSTANT HEAD =           0.0000
               WELLS =           0.0000                 WELLS =           0.0000
     HEAD DEP BOUNDS =       77500.4609       HEAD DEP BOUNDS =         618.0067

            TOTAL IN =       85221.0625              TOTAL IN =         907.8635

          OUT:                                     OUT:
          ----                                     ----
             STORAGE =           0.5781               STORAGE =       1.2970E-04
       CONSTANT HEAD =           0.0000         CONSTANT HEAD =           0.0000
               WELLS =        7800.0000                 WELLS =         300.0000
     HEAD DEP BOUNDS =       77418.2266       HEAD DEP BOUNDS =         607.8611

           TOTAL OUT =       85218.8047             TOTAL OUT =         907.8613

            IN - OUT =           2.2578              IN - OUT =       2.1973E-03

 PERCENT DISCREPANCY =           0.00     PERCENT DISCREPANCY =           0.00






          TIME SUMMARY AT END OF TIME STEP  26 IN STRESS PERIOD    3
                    SECONDS     MINUTES      HOURS       DAYS        YEARS
                    -----------------------------------------------------------
   TIME STEP LENGTH  86400.      1440.0      24.000      1.0000     2.73785E-03
 STRESS PERIOD TIME 2.24640E+06  37440.      624.00      26.000     7.11841E-02
         TOTAL TIME 1.09728E+07 1.82880E+05  3048.0      127.00     0.34771    
1
 
 SOLVING FOR HEAD 

 OUTPUT CONTROL FOR STRESS PERIOD    3   TIME STEP  27
    SAVE HEAD FOR ALL LAYERS
    SAVE DRAWDOWN FOR ALL LAYERS
    SAVE BUDGET
    PRINT HEAD FOR ALL LAYERS
    PRINT BUDGET
 UBDSV1 SAVING "         STORAGE" ON UNIT  53 AT TIME STEP 27, STRESS PERIOD   3
 UBDSV2 SAVING "   CONSTANT HEAD" ON UNIT  53 AT TIME STEP 27, STRESS PERIOD   3
 UBDSV1 SAVING "FLOW RIGHT FACE " ON UNIT  53 AT TIME STEP 27, STRESS PERIOD   3
 UBDSV1 SAVING "FLOW FRONT FACE " ON UNIT  53 AT TIME STEP 27, STRESS PERIOD   3
1
              HEAD IN LAYER   1 AT END OF TIME STEP  27 IN STRESS PERIOD    3
  ---------------------------------------------------------------------------

            1           2           3           4           5           6           7           8           9          10
 ........................................................................................................................
   1    9.990       8.963       7.916       6.847       5.761       4.661       3.540       2.392       1.216      1.2188E-02
   2    9.990       8.959       7.905       6.824       5.726       4.637       3.529       2.388       1.215      1.2178E-02
   3    9.990       8.950       7.874       6.748       5.597       4.561       3.498       2.378       1.213      1.2153E-02
   4    9.990       8.933       7.812       6.563       5.183       4.370       3.433       2.360       1.208      1.2110E-02
   5    9.989       8.918       7.745       6.274       3.896       4.071       3.363       2.344       1.205      1.2077E-02
   6    9.990       8.933       7.812       6.563       5.183       4.370       3.433       2.360       1.208      1.2110E-02
   7    9.990       8.950       7.874       6.748       5.597       4.561       3.498       2.378       1.213      1.2153E-02
   8    9.990       8.959       7.905       6.825       5.726       4.638       3.529       2.388       1.215      1.2178E-02
   9    9.990       8.963       7.917       6.850       5.763       4.663       3.541       2.392       1.216      1.2189E-02
  10    9.990       8.964       7.920       6.856       5.773       4.669       3.544       2.393       1.217      1.2192E-02

 HEAD WILL BE SAVED ON UNIT   51 AT END OF TIME STEP  27, STRESS PERIOD    3

 DRAWDOWN WILL BE SAVED ON UNIT   52 AT END OF TIME STEP  27, STRESS PERIOD    3
1
  VOLUMETRIC BUDGET FOR ENTIRE MODEL AT END OF TIME STEP 27 IN STRESS PERIOD   3
  ------------------------------------------------------------------------------

     CUMULATIVE VOLUMES      L**3       RATES FOR THIS TIME STEP      L**3/T
     ------------------                 ------------------------

           IN:                                      IN:
           ---                                      ---
             STORAGE =        8009.5078               STORAGE =         288.9072
       CONSTANT HEAD =           0.0000         CONSTANT HEAD =           0.0000
               WELLS =           0.0000                 WELLS =           0.0000
     HEAD DEP BOUNDS =       78119.1953       HEAD DEP BOUNDS =         618.7310

            TOTAL IN =       86128.7031              TOTAL IN =         907.6382

          OUT:                                     OUT:
          ----                                     ----
             STORAGE =           0.5781               STORAGE =           0.0000
       CONSTANT HEAD =           0.0000         CONSTANT HEAD =           0.0000
               WELLS =        8100.0000                 WELLS =         300.0000
     HEAD DEP BOUNDS =       78025.8672       HEAD DEP BOUNDS =         607.6381

           TOTAL OUT =       86126.4453             TOTAL OUT =         907.6381

            IN - OUT =           2.2578              IN - OUT =       6.1035E-05

 PERCENT DISCREPANCY =           0.00     PERCENT DISCREPANCY =           0.00






          TIME SUMMARY AT END OF TIME STEP  27 IN STRESS PERIOD    3
                    SECONDS     MINUTES      HOURS       DAYS        YEARS
                    -----------------------------------------------------------
   TIME STEP LENGTH  86400.      1440.0      24.000      1.0000     2.73785E-03
 STRESS PERIOD TIME 2.33280E+06  38880.      648.00      27.000     7.39220E-02
         TOTAL TIME 1.10592E+07 1.84320E+05  3072.0      128.00     0.35044    
1
 
 SOLVING FOR HEAD 

 OUTPUT CONTROL FOR STRESS PERIOD    3   TIME STEP  28
    SAVE HEAD FOR ALL LAYERS
    SAVE DRAWDOWN FOR ALL LAYERS
    SAVE BUDGET
    PRINT HEAD FOR ALL LAYERS
    PRINT BUDGET
 UBDSV1 SAVING "         STORAGE" ON UNIT  53 AT TIME STEP 28, STRESS PERIOD   3
 UBDSV2 SAVING "   CONSTANT HEAD" ON UNIT  53 AT TIME STEP 28, STRESS PERIOD   3
 UBDSV1 SAVING "FLOW RIGHT FACE " ON UNIT  53 AT TIME STEP 28, STRESS PERIOD   3
 UBDSV1 SAVING "FLOW FRONT FACE " ON UNIT  53 AT TIME STEP 28, STRESS PERIOD   3
1
              HEAD IN LAYER   1 AT END OF TIME STEP  28 IN STRESS PERIOD    3
  ---------------------------------------------------------------------------

            1           2           3           4           5           6           7           8           9          10
 ........................................................................................................................
   1    9.990       8.962       7.915       6.846       5.759       4.659       3.539       2.392       1.216      1.2187E-02
   2    9.990       8.958       7.903       6.821       5.722       4.634       3.527       2.388       1.215      1.2176E-02
   3    9.990       8.948       7.871       6.742       5.589       4.554       3.494       2.377       1.212      1.2147E-02
   4    9.990       8.930       7.806       6.552       5.169       4.359       3.427       2.357       1.208      1.2101E-02
   5    9.989       8.915       7.738       6.260       3.878       4.057       3.355       2.340       1.204      1.2066E-02
   6    9.990       8.930       7.806       6.552       5.169       4.359       3.427       2.357       1.208      1.2101E-02
   7    9.990       8.948       7.871       6.742       5.589       4.554       3.494       2.377       1.212      1.2148E-02
   8    9.990       8.958       7.904       6.822       5.723       4.635       3.528       2.388       1.215      1.2176E-02
   9    9.990       8.963       7.916       6.849       5.762       4.662       3.540       2.392       1.216      1.2188E-02
  10    9.990       8.964       7.920       6.856       5.772       4.669       3.544       2.393       1.217      1.2192E-02

 HEAD WILL BE SAVED ON UNIT   51 AT END OF TIME STEP  28, STRESS PERIOD    3

 DRAWDOWN WILL BE SAVED ON UNIT   52 AT END OF TIME STEP  28, STRESS PERIOD    3
1
  VOLUMETRIC BUDGET FOR ENTIRE MODEL AT END OF TIME STEP 28 IN STRESS PERIOD   3
  ------------------------------------------------------------------------------

     CUMULATIVE VOLUMES      L**3       RATES FOR THIS TIME STEP      L**3/T
     ------------------                 ------------------------

           IN:                                      IN:
           ---                                      ---
             STORAGE =        8297.4297               STORAGE =         287.9219
       CONSTANT HEAD =           0.0000         CONSTANT HEAD =           0.0000
               WELLS =           0.0000                 WELLS =           0.0000
     HEAD DEP BOUNDS =       78738.6719       HEAD DEP BOUNDS =         619.4730

            TOTAL IN =       87036.1016              TOTAL IN =         907.3950

          OUT:                                     OUT:
          ----                                     ----
             STORAGE =           0.5781               STORAGE =           0.0000
       CONSTANT HEAD =           0.0000         CONSTANT HEAD =           0.0000
               WELLS =        8400.0000                 WELLS =         300.0000
     HEAD DEP BOUNDS =       78633.2734       HEAD DEP BOUNDS =         607.4033

           TOTAL OUT =       87033.8516             TOTAL OUT =         907.4033

            IN - OUT =           2.2500              IN - OUT =      -8.3008E-03

 PERCENT DISCREPANCY =           0.00     PERCENT DISCREPANCY =           0.00






          TIME SUMMARY AT END OF TIME STEP  28 IN STRESS PERIOD    3
                    SECONDS     MINUTES      HOURS       DAYS        YEARS
                    -----------------------------------------------------------
   TIME STEP LENGTH  86400.      1440.0      24.000      1.0000     2.73785E-03
 STRESS PERIOD TIME 2.41920E+06  40320.      672.00      28.000     7.66598E-02
         TOTAL TIME 1.11456E+07 1.85760E+05  3096.0      129.00     0.35318    
1
 
 SOLVING FOR HEAD 

 OUTPUT CONTROL FOR STRESS PERIOD    3   TIME STEP  29
    SAVE HEAD FOR ALL LAYERS
    SAVE DRAWDOWN FOR ALL LAYERS
    SAVE BUDGET
    PRINT HEAD FOR ALL LAYERS
    PRINT BUDGET
 UBDSV1 SAVING "         STORAGE" ON UNIT  53 AT TIME STEP 29, STRESS PERIOD   3
 UBDSV2 SAVING "   CONSTANT HEAD" ON UNIT  53 AT TIME STEP 29, STRESS PERIOD   3
 UBDSV1 SAVING "FLOW RIGHT FACE " ON UNIT  53 AT TIME STEP 29, STRESS PERIOD   3
 UBDSV1 SAVING "FLOW FRONT FACE " ON UNIT  53 AT TIME STEP 29, STRESS PERIOD   3
1
              HEAD IN LAYER   1 AT END OF TIME STEP  29 IN STRESS PERIOD    3
  ---------------------------------------------------------------------------

            1           2           3           4           5           6           7           8           9          10
 ........................................................................................................................
   1    9.990       8.962       7.914       6.845       5.757       4.658       3.538       2.391       1.216      1.2185E-02
   2    9.990       8.958       7.902       6.818       5.719       4.632       3.526       2.387       1.215      1.2173E-02
   3    9.990       8.947       7.867       6.736       5.581       4.547       3.490       2.375       1.212      1.2142E-02
   4    9.989       8.928       7.799       6.541       5.155       4.347       3.420       2.354       1.207      1.2091E-02
   5    9.989       8.912       7.730       6.247       3.860       4.042       3.346       2.337       1.203      1.2054E-02
   6    9.989       8.928       7.799       6.541       5.155       4.347       3.420       2.354       1.207      1.2091E-02
   7    9.990       8.947       7.867       6.736       5.581       4.548       3.490       2.375       1.212      1.2142E-02
   8    9.990       8.958       7.902       6.819       5.719       4.632       3.526       2.387       1.215      1.2174E-02
   9    9.990       8.962       7.915       6.847       5.761       4.661       3.539       2.392       1.216      1.2187E-02
  10    9.990       8.964       7.919       6.855       5.772       4.669       3.543       2.393       1.217      1.2192E-02

 HEAD WILL BE SAVED ON UNIT   51 AT END OF TIME STEP  29, STRESS PERIOD    3

 DRAWDOWN WILL BE SAVED ON UNIT   52 AT END OF TIME STEP  29, STRESS PERIOD    3
1
  VOLUMETRIC BUDGET FOR ENTIRE MODEL AT END OF TIME STEP 29 IN STRESS PERIOD   3
  ------------------------------------------------------------------------------

     CUMULATIVE VOLUMES      L**3       RATES FOR THIS TIME STEP      L**3/T
     ------------------                 ------------------------

           IN:                                      IN:
           ---                                      ---
             STORAGE =        8584.3418               STORAGE =         286.9121
       CONSTANT HEAD =           0.0000         CONSTANT HEAD =           0.0000
               WELLS =           0.0000                 WELLS =           0.0000
     HEAD DEP BOUNDS =       79358.9141       HEAD DEP BOUNDS =         620.2384

            TOTAL IN =       87943.2578              TOTAL IN =         907.1505

          OUT:                                     OUT:
          ----                                     ----
             STORAGE =           0.5782               STORAGE =       1.0586E-04
       CONSTANT HEAD =           0.0000         CONSTANT HEAD =           0.0000
               WELLS =        8700.0000                 WELLS =         300.0000
     HEAD DEP BOUNDS =       79240.4297       HEAD DEP BOUNDS =         607.1542

           TOTAL OUT =       87941.0078             TOTAL OUT =         907.1543

            IN - OUT =           2.2500              IN - OUT =      -3.7842E-03

 PERCENT DISCREPANCY =           0.00     PERCENT DISCREPANCY =           0.00






          TIME SUMMARY AT END OF TIME STEP  29 IN STRESS PERIOD    3
                    SECONDS     MINUTES      HOURS       DAYS        YEARS
                    -----------------------------------------------------------
   TIME STEP LENGTH  86400.      1440.0      24.000      1.0000     2.73785E-03
 STRESS PERIOD TIME 2.50560E+06  41760.      696.00      29.000     7.93977E-02
         TOTAL TIME 1.12320E+07 1.87200E+05  3120.0      130.00     0.35592    
1
 
 SOLVING FOR HEAD 

 OUTPUT CONTROL FOR STRESS PERIOD    3   TIME STEP  30
    SAVE HEAD FOR ALL LAYERS
    SAVE DRAWDOWN FOR ALL LAYERS
    SAVE BUDGET
    PRINT HEAD FOR ALL LAYERS
    PRINT BUDGET
 UBDSV1 SAVING "         STORAGE" ON UNIT  53 AT TIME STEP 30, STRESS PERIOD   3
 UBDSV2 SAVING "   CONSTANT HEAD" ON UNIT  53 AT TIME STEP 30, STRESS PERIOD   3
 UBDSV1 SAVING "FLOW RIGHT FACE " ON UNIT  53 AT TIME STEP 30, STRESS PERIOD   3
 UBDSV1 SAVING "FLOW FRONT FACE " ON UNIT  53 AT TIME STEP 30, STRESS PERIOD   3
1
              HEAD IN LAYER   1 AT END OF TIME STEP  30 IN STRESS PERIOD    3
  ---------------------------------------------------------------------------

            1           2           3           4           5           6           7           8           9          10
 ........................................................................................................................
   1    9.990       8.961       7.913       6.843       5.756       4.657       3.537       2.391       1.216      1.2184E-02
   2    9.990       8.957       7.900       6.815       5.715       4.629       3.524       2.386       1.215      1.2170E-02
   3    9.990       8.945       7.863       6.729       5.573       4.541       3.487       2.373       1.211      1.2136E-02
   4    9.989       8.925       7.793       6.530       5.142       4.336       3.413       2.351       1.206      1.2081E-02
   5    9.989       8.909       7.723       6.233       3.843       4.029       3.338       2.333       1.202      1.2042E-02
   6    9.989       8.925       7.793       6.530       5.142       4.336       3.414       2.351       1.206      1.2081E-02
   7    9.990       8.945       7.863       6.729       5.573       4.541       3.487       2.373       1.211      1.2136E-02
   8    9.990       8.957       7.900       6.816       5.716       4.629       3.524       2.386       1.215      1.2171E-02
   9    9.990       8.962       7.915       6.846       5.760       4.660       3.539       2.391       1.216      1.2186E-02
  10    9.990       8.964       7.919       6.855       5.771       4.668       3.543       2.393       1.217      1.2191E-02

 HEAD WILL BE SAVED ON UNIT   51 AT END OF TIME STEP  30, STRESS PERIOD    3

 DRAWDOWN WILL BE SAVED ON UNIT   52 AT END OF TIME STEP  30, STRESS PERIOD    3
1
  VOLUMETRIC BUDGET FOR ENTIRE MODEL AT END OF TIME STEP 30 IN STRESS PERIOD   3
  ------------------------------------------------------------------------------

     CUMULATIVE VOLUMES      L**3       RATES FOR THIS TIME STEP      L**3/T
     ------------------                 ------------------------

           IN:                                      IN:
           ---                                      ---
             STORAGE =        8870.2061               STORAGE =         285.8643
       CONSTANT HEAD =           0.0000         CONSTANT HEAD =           0.0000
               WELLS =           0.0000                 WELLS =           0.0000
     HEAD DEP BOUNDS =       79979.9375       HEAD DEP BOUNDS =         621.0258

            TOTAL IN =       88850.1406              TOTAL IN =         906.8900

          OUT:                                     OUT:
          ----                                     ----
             STORAGE =           0.5782               STORAGE =           0.0000
       CONSTANT HEAD =           0.0000         CONSTANT HEAD =           0.0000
               WELLS =        9000.0000                 WELLS =         300.0000
     HEAD DEP BOUNDS =       79847.3203       HEAD DEP BOUNDS =         606.8920

           TOTAL OUT =       88847.8984             TOTAL OUT =         906.8920

            IN - OUT =           2.2422              IN - OUT =      -1.9531E-03

 PERCENT DISCREPANCY =           0.00     PERCENT DISCREPANCY =           0.00






          TIME SUMMARY AT END OF TIME STEP  30 IN STRESS PERIOD    3
                    SECONDS     MINUTES      HOURS       DAYS        YEARS
                    -----------------------------------------------------------
   TIME STEP LENGTH  86400.      1440.0      24.000      1.0000     2.73785E-03
 STRESS PERIOD TIME 2.59200E+06  43200.      720.00      30.000     8.21355E-02
         TOTAL TIME 1.13184E+07 1.88640E+05  3144.0      131.00     0.35866    
1
 
 SOLVING FOR HEAD 

 OUTPUT CONTROL FOR STRESS PERIOD    3   TIME STEP  31
    SAVE HEAD FOR ALL LAYERS
    SAVE DRAWDOWN FOR ALL LAYERS
    SAVE BUDGET
    PRINT HEAD FOR ALL LAYERS
    PRINT BUDGET
 UBDSV1 SAVING "         STORAGE" ON UNIT  53 AT TIME STEP 31, STRESS PERIOD   3
 UBDSV2 SAVING "   CONSTANT HEAD" ON UNIT  53 AT TIME STEP 31, STRESS PERIOD   3
 UBDSV1 SAVING "FLOW RIGHT FACE " ON UNIT  53 AT TIME STEP 31, STRESS PERIOD   3
 UBDSV1 SAVING "FLOW FRONT FACE " ON UNIT  53 AT TIME STEP 31, STRESS PERIOD   3
1
              HEAD IN LAYER   1 AT END OF TIME STEP  31 IN STRESS PERIOD    3
  ---------------------------------------------------------------------------

            1           2           3           4           5           6           7           8           9          10
 ........................................................................................................................
   1    9.990       8.961       7.912       6.842       5.754       4.655       3.536       2.390       1.216      1.2183E-02
   2    9.990       8.956       7.898       6.812       5.711       4.625       3.522       2.385       1.214      1.2167E-02
   3    9.990       8.943       7.859       6.723       5.565       4.534       3.483       2.371       1.211      1.2130E-02
   4    9.989       8.922       7.787       6.520       5.129       4.325       3.407       2.348       1.205      1.2071E-02
   5    9.989       8.906       7.715       6.221       3.827       4.015       3.330       2.330       1.200      1.2029E-02
   6    9.989       8.922       7.787       6.520       5.129       4.325       3.407       2.348       1.205      1.2071E-02
   7    9.990       8.944       7.860       6.723       5.565       4.535       3.483       2.372       1.211      1.2130E-02
   8    9.990       8.956       7.898       6.813       5.712       4.626       3.522       2.385       1.214      1.2168E-02
   9    9.990       8.962       7.914       6.845       5.758       4.659       3.538       2.391       1.216      1.2185E-02
  10    9.990       8.964       7.919       6.854       5.771       4.668       3.543       2.393       1.217      1.2191E-02

 HEAD WILL BE SAVED ON UNIT   51 AT END OF TIME STEP  31, STRESS PERIOD    3

 DRAWDOWN WILL BE SAVED ON UNIT   52 AT END OF TIME STEP  31, STRESS PERIOD    3
1
  VOLUMETRIC BUDGET FOR ENTIRE MODEL AT END OF TIME STEP 31 IN STRESS PERIOD   3
  ------------------------------------------------------------------------------

     CUMULATIVE VOLUMES      L**3       RATES FOR THIS TIME STEP      L**3/T
     ------------------                 ------------------------

           IN:                                      IN:
           ---                                      ---
             STORAGE =        9154.9951               STORAGE =         284.7886
       CONSTANT HEAD =           0.0000         CONSTANT HEAD =           0.0000
               WELLS =           0.0000                 WELLS =           0.0000
     HEAD DEP BOUNDS =       80601.7656       HEAD DEP BOUNDS =         621.8273

            TOTAL IN =       89756.7578              TOTAL IN =         906.6158

          OUT:                                     OUT:
          ----                                     ----
             STORAGE =           0.5783               STORAGE =       1.3065E-04
       CONSTANT HEAD =           0.0000         CONSTANT HEAD =           0.0000
               WELLS =        9300.0000                 WELLS =         300.0000
     HEAD DEP BOUNDS =       80453.9375       HEAD DEP BOUNDS =         606.6167

           TOTAL OUT =       89754.5156             TOTAL OUT =         906.6168

            IN - OUT =           2.2422              IN - OUT =      -9.7656E-04

 PERCENT DISCREPANCY =           0.00     PERCENT DISCREPANCY =           0.00






          TIME SUMMARY AT END OF TIME STEP  31 IN STRESS PERIOD    3
                    SECONDS     MINUTES      HOURS       DAYS        YEARS
                    -----------------------------------------------------------
   TIME STEP LENGTH  86400.      1440.0      24.000      1.0000     2.73785E-03
 STRESS PERIOD TIME 2.67840E+06  44640.      744.00      31.000     8.48734E-02
         TOTAL TIME 1.14048E+07 1.90080E+05  3168.0      132.00     0.36140    
1
 
 SOLVING FOR HEAD 

 OUTPUT CONTROL FOR STRESS PERIOD    3   TIME STEP  32
    SAVE HEAD FOR ALL LAYERS
    SAVE DRAWDOWN FOR ALL LAYERS
    SAVE BUDGET
    PRINT HEAD FOR ALL LAYERS
    PRINT BUDGET
 UBDSV1 SAVING "         STORAGE" ON UNIT  53 AT TIME STEP 32, STRESS PERIOD   3
 UBDSV2 SAVING "   CONSTANT HEAD" ON UNIT  53 AT TIME STEP 32, STRESS PERIOD   3
 UBDSV1 SAVING "FLOW RIGHT FACE " ON UNIT  53 AT TIME STEP 32, STRESS PERIOD   3
 UBDSV1 SAVING "FLOW FRONT FACE " ON UNIT  53 AT TIME STEP 32, STRESS PERIOD   3
1
              HEAD IN LAYER   1 AT END OF TIME STEP  32 IN STRESS PERIOD    3
  ---------------------------------------------------------------------------

            1           2           3           4           5           6           7           8           9          10
 ........................................................................................................................
   1    9.990       8.961       7.911       6.840       5.752       4.654       3.535       2.390       1.216      1.2181E-02
   2    9.990       8.955       7.896       6.809       5.707       4.622       3.520       2.384       1.214      1.2164E-02
   3    9.990       8.942       7.856       6.717       5.557       4.528       3.479       2.370       1.210      1.2123E-02
   4    9.989       8.920       7.781       6.509       5.116       4.315       3.400       2.345       1.203      1.2060E-02
   5    9.989       8.903       7.708       6.208       3.811       4.002       3.323       2.326       1.199      1.2016E-02
   6    9.989       8.920       7.781       6.509       5.116       4.315       3.400       2.345       1.203      1.2060E-02
   7    9.990       8.942       7.856       6.717       5.558       4.528       3.479       2.370       1.210      1.2123E-02
   8    9.990       8.955       7.897       6.810       5.709       4.623       3.521       2.384       1.214      1.2165E-02
   9    9.990       8.961       7.913       6.844       5.757       4.657       3.537       2.391       1.216      1.2184E-02
  10    9.990       8.964       7.919       6.854       5.770       4.667       3.542       2.393       1.217      1.2190E-02

 HEAD WILL BE SAVED ON UNIT   51 AT END OF TIME STEP  32, STRESS PERIOD    3

 DRAWDOWN WILL BE SAVED ON UNIT   52 AT END OF TIME STEP  32, STRESS PERIOD    3
1
  VOLUMETRIC BUDGET FOR ENTIRE MODEL AT END OF TIME STEP 32 IN STRESS PERIOD   3
  ------------------------------------------------------------------------------

     CUMULATIVE VOLUMES      L**3       RATES FOR THIS TIME STEP      L**3/T
     ------------------                 ------------------------

           IN:                                      IN:
           ---                                      ---
             STORAGE =        9438.6826               STORAGE =         283.6876
       CONSTANT HEAD =           0.0000         CONSTANT HEAD =           0.0000
               WELLS =           0.0000                 WELLS =           0.0000
     HEAD DEP BOUNDS =       81224.3984       HEAD DEP BOUNDS =         622.6353

            TOTAL IN =       90663.0781              TOTAL IN =         906.3229

          OUT:                                     OUT:
          ----                                     ----
             STORAGE =           0.5783               STORAGE =           0.0000
       CONSTANT HEAD =           0.0000         CONSTANT HEAD =           0.0000
               WELLS =        9600.0000                 WELLS =         300.0000
     HEAD DEP BOUNDS =       81060.2656       HEAD DEP BOUNDS =         606.3253

           TOTAL OUT =       90660.8438             TOTAL OUT =         906.3253

            IN - OUT =           2.2344              IN - OUT =      -2.4414E-03

 PERCENT DISCREPANCY =           0.00     PERCENT DISCREPANCY =           0.00






          TIME SUMMARY AT END OF TIME STEP  32 IN STRESS PERIOD    3
                    SECONDS     MINUTES      HOURS       DAYS        YEARS
                    -----------------------------------------------------------
   TIME STEP LENGTH  86400.      1440.0      24.000      1.0000     2.73785E-03
 STRESS PERIOD TIME 2.76480E+06  46080.      768.00      32.000     8.76112E-02
         TOTAL TIME 1.14912E+07 1.91520E+05  3192.0      133.00     0.36413    
1
 
 SOLVING FOR HEAD 

 OUTPUT CONTROL FOR STRESS PERIOD    3   TIME STEP  33
    SAVE HEAD FOR ALL LAYERS
    SAVE DRAWDOWN FOR ALL LAYERS
    SAVE BUDGET
    PRINT HEAD FOR ALL LAYERS
    PRINT BUDGET
 UBDSV1 SAVING "         STORAGE" ON UNIT  53 AT TIME STEP 33, STRESS PERIOD   3
 UBDSV2 SAVING "   CONSTANT HEAD" ON UNIT  53 AT TIME STEP 33, STRESS PERIOD   3
 UBDSV1 SAVING "FLOW RIGHT FACE " ON UNIT  53 AT TIME STEP 33, STRESS PERIOD   3
 UBDSV1 SAVING "FLOW FRONT FACE " ON UNIT  53 AT TIME STEP 33, STRESS PERIOD   3
1
              HEAD IN LAYER   1 AT END OF TIME STEP  33 IN STRESS PERIOD    3
  ---------------------------------------------------------------------------

            1           2           3           4           5           6           7           8           9          10
 ........................................................................................................................
   1    9.990       8.960       7.910       6.839       5.750       4.652       3.534       2.389       1.215      1.2179E-02
   2    9.990       8.954       7.894       6.806       5.704       4.619       3.518       2.383       1.214      1.2160E-02
   3    9.990       8.940       7.852       6.710       5.550       4.522       3.475       2.368       1.209      1.2116E-02
   4    9.989       8.917       7.775       6.499       5.104       4.304       3.394       2.342       1.202      1.2049E-02
   5    9.989       8.900       7.701       6.196       3.796       3.990       3.315       2.322       1.198      1.2003E-02
   6    9.989       8.917       7.775       6.499       5.104       4.304       3.394       2.342       1.202      1.2049E-02
   7    9.990       8.940       7.852       6.711       5.550       4.522       3.475       2.368       1.209      1.2116E-02
   8    9.990       8.955       7.895       6.807       5.705       4.620       3.519       2.383       1.214      1.2161E-02
   9    9.990       8.961       7.912       6.843       5.755       4.656       3.536       2.390       1.216      1.2182E-02
  10    9.990       8.963       7.918       6.853       5.769       4.667       3.542       2.393       1.217      1.2189E-02

 HEAD WILL BE SAVED ON UNIT   51 AT END OF TIME STEP  33, STRESS PERIOD    3

 DRAWDOWN WILL BE SAVED ON UNIT   52 AT END OF TIME STEP  33, STRESS PERIOD    3
1
  VOLUMETRIC BUDGET FOR ENTIRE MODEL AT END OF TIME STEP 33 IN STRESS PERIOD   3
  ------------------------------------------------------------------------------

     CUMULATIVE VOLUMES      L**3       RATES FOR THIS TIME STEP      L**3/T
     ------------------                 ------------------------

           IN:                                      IN:
           ---                                      ---
             STORAGE =        9721.2383               STORAGE =         282.5557
       CONSTANT HEAD =           0.0000         CONSTANT HEAD =           0.0000
               WELLS =           0.0000                 WELLS =           0.0000
     HEAD DEP BOUNDS =       81847.8750       HEAD DEP BOUNDS =         623.4752

            TOTAL IN =       91569.1094              TOTAL IN =         906.0309

          OUT:                                     OUT:
          ----                                     ----
             STORAGE =           0.5783               STORAGE =           0.0000
       CONSTANT HEAD =           0.0000         CONSTANT HEAD =           0.0000
               WELLS =        9900.0000                 WELLS =         300.0000
     HEAD DEP BOUNDS =       81666.2891       HEAD DEP BOUNDS =         606.0244

           TOTAL OUT =       91566.8672             TOTAL OUT =         906.0244

            IN - OUT =           2.2422              IN - OUT =       6.4697E-03

 PERCENT DISCREPANCY =           0.00     PERCENT DISCREPANCY =           0.00






          TIME SUMMARY AT END OF TIME STEP  33 IN STRESS PERIOD    3
                    SECONDS     MINUTES      HOURS       DAYS        YEARS
                    -----------------------------------------------------------
   TIME STEP LENGTH  86400.      1440.0      24.000      1.0000     2.73785E-03
 STRESS PERIOD TIME 2.85120E+06  47520.      792.00      33.000     9.03491E-02
         TOTAL TIME 1.15776E+07 1.92960E+05  3216.0      134.00     0.36687    
1
 
 SOLVING FOR HEAD 

 OUTPUT CONTROL FOR STRESS PERIOD    3   TIME STEP  34
    SAVE HEAD FOR ALL LAYERS
    SAVE DRAWDOWN FOR ALL LAYERS
    SAVE BUDGET
    PRINT HEAD FOR ALL LAYERS
    PRINT BUDGET
 UBDSV1 SAVING "         STORAGE" ON UNIT  53 AT TIME STEP 34, STRESS PERIOD   3
 UBDSV2 SAVING "   CONSTANT HEAD" ON UNIT  53 AT TIME STEP 34, STRESS PERIOD   3
 UBDSV1 SAVING "FLOW RIGHT FACE " ON UNIT  53 AT TIME STEP 34, STRESS PERIOD   3
 UBDSV1 SAVING "FLOW FRONT FACE " ON UNIT  53 AT TIME STEP 34, STRESS PERIOD   3
1
              HEAD IN LAYER   1 AT END OF TIME STEP  34 IN STRESS PERIOD    3
  ---------------------------------------------------------------------------

            1           2           3           4           5           6           7           8           9          10
 ........................................................................................................................
   1    9.990       8.960       7.909       6.837       5.748       4.650       3.533       2.389       1.215      1.2177E-02
   2    9.990       8.953       7.892       6.803       5.700       4.616       3.516       2.382       1.213      1.2156E-02
   3    9.990       8.938       7.848       6.704       5.542       4.515       3.471       2.366       1.208      1.2108E-02
   4    9.989       8.915       7.769       6.489       5.092       4.294       3.387       2.339       1.201      1.2037E-02
   5    9.989       8.897       7.694       6.184       3.781       3.977       3.307       2.319       1.196      1.1989E-02
   6    9.989       8.915       7.769       6.489       5.092       4.294       3.387       2.339       1.201      1.2037E-02
   7    9.990       8.939       7.848       6.704       5.543       4.515       3.471       2.366       1.208      1.2109E-02
   8    9.990       8.954       7.893       6.804       5.701       4.617       3.517       2.382       1.213      1.2157E-02
   9    9.990       8.961       7.912       6.841       5.754       4.655       3.536       2.390       1.216      1.2181E-02
  10    9.990       8.963       7.918       6.853       5.769       4.666       3.542       2.392       1.216      1.2189E-02

 HEAD WILL BE SAVED ON UNIT   51 AT END OF TIME STEP  34, STRESS PERIOD    3

 DRAWDOWN WILL BE SAVED ON UNIT   52 AT END OF TIME STEP  34, STRESS PERIOD    3
1
  VOLUMETRIC BUDGET FOR ENTIRE MODEL AT END OF TIME STEP 34 IN STRESS PERIOD   3
  ------------------------------------------------------------------------------

     CUMULATIVE VOLUMES      L**3       RATES FOR THIS TIME STEP      L**3/T
     ------------------                 ------------------------

           IN:                                      IN:
           ---                                      ---
             STORAGE =       10002.6338               STORAGE =         281.3954
       CONSTANT HEAD =           0.0000         CONSTANT HEAD =           0.0000
               WELLS =           0.0000                 WELLS =           0.0000
     HEAD DEP BOUNDS =       82472.1719       HEAD DEP BOUNDS =         624.2992

            TOTAL IN =       92474.8047              TOTAL IN =         905.6946

          OUT:                                     OUT:
          ----                                     ----
             STORAGE =           0.5783               STORAGE =           0.0000
       CONSTANT HEAD =           0.0000         CONSTANT HEAD =           0.0000
               WELLS =       10200.0000                 WELLS =         300.0000
     HEAD DEP BOUNDS =       82271.9922       HEAD DEP BOUNDS =         605.7055

           TOTAL OUT =       92472.5703             TOTAL OUT =         905.7055

            IN - OUT =           2.2344              IN - OUT =      -1.0925E-02

 PERCENT DISCREPANCY =           0.00     PERCENT DISCREPANCY =           0.00






          TIME SUMMARY AT END OF TIME STEP  34 IN STRESS PERIOD    3
                    SECONDS     MINUTES      HOURS       DAYS        YEARS
                    -----------------------------------------------------------
   TIME STEP LENGTH  86400.      1440.0      24.000      1.0000     2.73785E-03
 STRESS PERIOD TIME 2.93760E+06  48960.      816.00      34.000     9.30869E-02
         TOTAL TIME 1.16640E+07 1.94400E+05  3240.0      135.00     0.36961    
1
 
 SOLVING FOR HEAD 

 OUTPUT CONTROL FOR STRESS PERIOD    3   TIME STEP  35
    SAVE HEAD FOR ALL LAYERS
    SAVE DRAWDOWN FOR ALL LAYERS
    SAVE BUDGET
    PRINT HEAD FOR ALL LAYERS
    PRINT BUDGET
 UBDSV1 SAVING "         STORAGE" ON UNIT  53 AT TIME STEP 35, STRESS PERIOD   3
 UBDSV2 SAVING "   CONSTANT HEAD" ON UNIT  53 AT TIME STEP 35, STRESS PERIOD   3
 UBDSV1 SAVING "FLOW RIGHT FACE " ON UNIT  53 AT TIME STEP 35, STRESS PERIOD   3
 UBDSV1 SAVING "FLOW FRONT FACE " ON UNIT  53 AT TIME STEP 35, STRESS PERIOD   3
1
              HEAD IN LAYER   1 AT END OF TIME STEP  35 IN STRESS PERIOD    3
  ---------------------------------------------------------------------------

            1           2           3           4           5           6           7           8           9          10
 ........................................................................................................................
   1    9.990       8.959       7.908       6.835       5.746       4.648       3.532       2.388       1.215      1.2175E-02
   2    9.990       8.953       7.890       6.799       5.696       4.612       3.514       2.381       1.213      1.2152E-02
   3    9.990       8.937       7.844       6.698       5.535       4.509       3.466       2.364       1.208      1.2101E-02
   4    9.989       8.912       7.763       6.480       5.080       4.284       3.381       2.336       1.200      1.2025E-02
   5    9.989       8.894       7.687       6.173       3.767       3.966       3.300       2.315       1.195      1.1975E-02
   6    9.989       8.912       7.763       6.480       5.080       4.284       3.381       2.336       1.200      1.2025E-02
   7    9.990       8.937       7.844       6.698       5.535       4.509       3.467       2.364       1.208      1.2101E-02
   8    9.990       8.953       7.891       6.801       5.698       4.614       3.515       2.381       1.213      1.2154E-02
   9    9.990       8.960       7.911       6.840       5.752       4.653       3.535       2.390       1.215      1.2179E-02
  10    9.990       8.963       7.917       6.852       5.768       4.666       3.541       2.392       1.216      1.2188E-02

 HEAD WILL BE SAVED ON UNIT   51 AT END OF TIME STEP  35, STRESS PERIOD    3

 DRAWDOWN WILL BE SAVED ON UNIT   52 AT END OF TIME STEP  35, STRESS PERIOD    3
1
  VOLUMETRIC BUDGET FOR ENTIRE MODEL AT END OF TIME STEP 35 IN STRESS PERIOD   3
  ------------------------------------------------------------------------------

     CUMULATIVE VOLUMES      L**3       RATES FOR THIS TIME STEP      L**3/T
     ------------------                 ------------------------

           IN:                                      IN:
           ---                                      ---
             STORAGE =       10282.8447               STORAGE =         280.2110
       CONSTANT HEAD =           0.0000         CONSTANT HEAD =           0.0000
               WELLS =           0.0000                 WELLS =           0.0000
     HEAD DEP BOUNDS =       83097.3281       HEAD DEP BOUNDS =         625.1532

            TOTAL IN =       93380.1719              TOTAL IN =         905.3641

          OUT:                                     OUT:
          ----                                     ----
             STORAGE =           0.5783               STORAGE =           0.0000
       CONSTANT HEAD =           0.0000         CONSTANT HEAD =           0.0000
               WELLS =       10500.0000                 WELLS =         300.0000
     HEAD DEP BOUNDS =       82877.3672       HEAD DEP BOUNDS =         605.3752

           TOTAL OUT =       93377.9453             TOTAL OUT =         905.3752

            IN - OUT =           2.2266              IN - OUT =      -1.1108E-02

 PERCENT DISCREPANCY =           0.00     PERCENT DISCREPANCY =           0.00






          TIME SUMMARY AT END OF TIME STEP  35 IN STRESS PERIOD    3
                    SECONDS     MINUTES      HOURS       DAYS        YEARS
                    -----------------------------------------------------------
   TIME STEP LENGTH  86400.      1440.0      24.000      1.0000     2.73785E-03
 STRESS PERIOD TIME 3.02400E+06  50400.      840.00      35.000     9.58248E-02
         TOTAL TIME 1.17504E+07 1.95840E+05  3264.0      136.00     0.37235    
1
 
 SOLVING FOR HEAD 

 OUTPUT CONTROL FOR STRESS PERIOD    3   TIME STEP  36
    SAVE HEAD FOR ALL LAYERS
    SAVE DRAWDOWN FOR ALL LAYERS
    SAVE BUDGET
    PRINT HEAD FOR ALL LAYERS
    PRINT BUDGET
 UBDSV1 SAVING "         STORAGE" ON UNIT  53 AT TIME STEP 36, STRESS PERIOD   3
 UBDSV2 SAVING "   CONSTANT HEAD" ON UNIT  53 AT TIME STEP 36, STRESS PERIOD   3
 UBDSV1 SAVING "FLOW RIGHT FACE " ON UNIT  53 AT TIME STEP 36, STRESS PERIOD   3
 UBDSV1 SAVING "FLOW FRONT FACE " ON UNIT  53 AT TIME STEP 36, STRESS PERIOD   3
1
              HEAD IN LAYER   1 AT END OF TIME STEP  36 IN STRESS PERIOD    3
  ---------------------------------------------------------------------------

            1           2           3           4           5           6           7           8           9          10
 ........................................................................................................................
   1    9.990       8.959       7.907       6.833       5.744       4.647       3.531       2.388       1.215      1.2172E-02
   2    9.990       8.952       7.888       6.796       5.692       4.609       3.512       2.380       1.212      1.2148E-02
   3    9.990       8.935       7.840       6.692       5.528       4.502       3.462       2.362       1.207      1.2093E-02
   4    9.989       8.909       7.757       6.470       5.068       4.274       3.375       2.333       1.199      1.2013E-02
   5    9.989       8.891       7.680       6.162       3.753       3.954       3.292       2.311       1.194      1.1961E-02
   6    9.989       8.909       7.757       6.470       5.068       4.274       3.375       2.333       1.199      1.2013E-02
   7    9.990       8.935       7.840       6.692       5.528       4.503       3.462       2.362       1.207      1.2093E-02
   8    9.990       8.952       7.889       6.798       5.694       4.610       3.512       2.380       1.213      1.2149E-02
   9    9.990       8.960       7.910       6.839       5.751       4.652       3.534       2.389       1.215      1.2177E-02
  10    9.990       8.963       7.917       6.852       5.767       4.665       3.541       2.392       1.216      1.2187E-02

 HEAD WILL BE SAVED ON UNIT   51 AT END OF TIME STEP  36, STRESS PERIOD    3

 DRAWDOWN WILL BE SAVED ON UNIT   52 AT END OF TIME STEP  36, STRESS PERIOD    3
1
  VOLUMETRIC BUDGET FOR ENTIRE MODEL AT END OF TIME STEP 36 IN STRESS PERIOD   3
  ------------------------------------------------------------------------------

     CUMULATIVE VOLUMES      L**3       RATES FOR THIS TIME STEP      L**3/T
     ------------------                 ------------------------

           IN:                                      IN:
           ---                                      ---
             STORAGE =       10561.8525               STORAGE =         279.0078
       CONSTANT HEAD =           0.0000         CONSTANT HEAD =           0.0000
               WELLS =           0.0000                 WELLS =           0.0000
     HEAD DEP BOUNDS =       83723.3672       HEAD DEP BOUNDS =         626.0359

            TOTAL IN =       94285.2188              TOTAL IN =         905.0438

          OUT:                                     OUT:
          ----                                     ----
             STORAGE =           0.5783               STORAGE =           0.0000
       CONSTANT HEAD =           0.0000         CONSTANT HEAD =           0.0000
               WELLS =       10800.0000                 WELLS =         300.0000
     HEAD DEP BOUNDS =       83482.3984       HEAD DEP BOUNDS =         605.0336

           TOTAL OUT =       94282.9766             TOTAL OUT =         905.0336

            IN - OUT =           2.2422              IN - OUT =       1.0132E-02

 PERCENT DISCREPANCY =           0.00     PERCENT DISCREPANCY =           0.00






          TIME SUMMARY AT END OF TIME STEP  36 IN STRESS PERIOD    3
                    SECONDS     MINUTES      HOURS       DAYS        YEARS
                    -----------------------------------------------------------
   TIME STEP LENGTH  86400.      1440.0      24.000      1.0000     2.73785E-03
 STRESS PERIOD TIME 3.11040E+06  51840.      864.00      36.000     9.85626E-02
         TOTAL TIME 1.18368E+07 1.97280E+05  3288.0      137.00     0.37509    
1
 
 SOLVING FOR HEAD 

 OUTPUT CONTROL FOR STRESS PERIOD    3   TIME STEP  37
    SAVE HEAD FOR ALL LAYERS
    SAVE DRAWDOWN FOR ALL LAYERS
    SAVE BUDGET
    PRINT HEAD FOR ALL LAYERS
    PRINT BUDGET
 UBDSV1 SAVING "         STORAGE" ON UNIT  53 AT TIME STEP 37, STRESS PERIOD   3
 UBDSV2 SAVING "   CONSTANT HEAD" ON UNIT  53 AT TIME STEP 37, STRESS PERIOD   3
 UBDSV1 SAVING "FLOW RIGHT FACE " ON UNIT  53 AT TIME STEP 37, STRESS PERIOD   3
 UBDSV1 SAVING "FLOW FRONT FACE " ON UNIT  53 AT TIME STEP 37, STRESS PERIOD   3
1
              HEAD IN LAYER   1 AT END OF TIME STEP  37 IN STRESS PERIOD    3
  ---------------------------------------------------------------------------

            1           2           3           4           5           6           7           8           9          10
 ........................................................................................................................
   1    9.990       8.958       7.905       6.831       5.742       4.645       3.530       2.387       1.215      1.2170E-02
   2    9.990       8.951       7.886       6.793       5.688       4.606       3.509       2.379       1.212      1.2143E-02
   3    9.990       8.933       7.836       6.686       5.520       4.496       3.458       2.359       1.206      1.2084E-02
   4    9.989       8.907       7.751       6.461       5.057       4.264       3.368       2.329       1.198      1.2000E-02
   5    9.989       8.887       7.673       6.151       3.740       3.943       3.285       2.307       1.192      1.1946E-02
   6    9.989       8.907       7.751       6.461       5.057       4.264       3.368       2.329       1.198      1.2000E-02
   7    9.990       8.933       7.837       6.686       5.521       4.496       3.458       2.359       1.206      1.2085E-02
   8    9.990       8.951       7.887       6.794       5.690       4.607       3.510       2.379       1.212      1.2145E-02
   9    9.990       8.960       7.909       6.837       5.749       4.651       3.533       2.389       1.215      1.2175E-02
  10    9.990       8.963       7.916       6.851       5.767       4.664       3.541       2.392       1.216      1.2186E-02

 HEAD WILL BE SAVED ON UNIT   51 AT END OF TIME STEP  37, STRESS PERIOD    3

 DRAWDOWN WILL BE SAVED ON UNIT   52 AT END OF TIME STEP  37, STRESS PERIOD    3
1
  VOLUMETRIC BUDGET FOR ENTIRE MODEL AT END OF TIME STEP 37 IN STRESS PERIOD   3
  ------------------------------------------------------------------------------

     CUMULATIVE VOLUMES      L**3       RATES FOR THIS TIME STEP      L**3/T
     ------------------                 ------------------------

           IN:                                      IN:
           ---                                      ---
             STORAGE =       10839.6270               STORAGE =         277.7743
       CONSTANT HEAD =           0.0000         CONSTANT HEAD =           0.0000
               WELLS =           0.0000                 WELLS =           0.0000
     HEAD DEP BOUNDS =       84350.2578       HEAD DEP BOUNDS =         626.8933

            TOTAL IN =       95189.8828              TOTAL IN =         904.6676

          OUT:                                     OUT:
          ----                                     ----
             STORAGE =           0.5783               STORAGE =           0.0000
       CONSTANT HEAD =           0.0000         CONSTANT HEAD =           0.0000
               WELLS =       11100.0000                 WELLS =         300.0000
     HEAD DEP BOUNDS =       84087.0781       HEAD DEP BOUNDS =         604.6796

           TOTAL OUT =       95187.6562             TOTAL OUT =         904.6796

            IN - OUT =           2.2266              IN - OUT =      -1.2024E-02

 PERCENT DISCREPANCY =           0.00     PERCENT DISCREPANCY =           0.00






          TIME SUMMARY AT END OF TIME STEP  37 IN STRESS PERIOD    3
                    SECONDS     MINUTES      HOURS       DAYS        YEARS
                    -----------------------------------------------------------
   TIME STEP LENGTH  86400.      1440.0      24.000      1.0000     2.73785E-03
 STRESS PERIOD TIME 3.19680E+06  53280.      888.00      37.000     0.10130    
         TOTAL TIME 1.19232E+07 1.98720E+05  3312.0      138.00     0.37782    
1
 
 SOLVING FOR HEAD 

 OUTPUT CONTROL FOR STRESS PERIOD    3   TIME STEP  38
    SAVE HEAD FOR ALL LAYERS
    SAVE DRAWDOWN FOR ALL LAYERS
    SAVE BUDGET
    PRINT HEAD FOR ALL LAYERS
    PRINT BUDGET
 UBDSV1 SAVING "         STORAGE" ON UNIT  53 AT TIME STEP 38, STRESS PERIOD   3
 UBDSV2 SAVING "   CONSTANT HEAD" ON UNIT  53 AT TIME STEP 38, STRESS PERIOD   3
 UBDSV1 SAVING "FLOW RIGHT FACE " ON UNIT  53 AT TIME STEP 38, STRESS PERIOD   3
 UBDSV1 SAVING "FLOW FRONT FACE " ON UNIT  53 AT TIME STEP 38, STRESS PERIOD   3
1
              HEAD IN LAYER   1 AT END OF TIME STEP  38 IN STRESS PERIOD    3
  ---------------------------------------------------------------------------

            1           2           3           4           5           6           7           8           9          10
 ........................................................................................................................
   1    9.990       8.957       7.904       6.829       5.739       4.643       3.528       2.386       1.214      1.2167E-02
   2    9.990       8.950       7.883       6.789       5.684       4.602       3.507       2.378       1.211      1.2139E-02
   3    9.990       8.931       7.832       6.680       5.513       4.490       3.454       2.357       1.205      1.2076E-02
   4    9.989       8.904       7.745       6.452       5.046       4.255       3.362       2.326       1.196      1.1987E-02
   5    9.989       8.884       7.666       6.140       3.727       3.931       3.277       2.303       1.191      1.1931E-02
   6    9.989       8.904       7.745       6.452       5.046       4.255       3.362       2.326       1.196      1.1987E-02
   7    9.990       8.932       7.833       6.680       5.514       4.490       3.454       2.357       1.205      1.2076E-02
   8    9.990       8.950       7.885       6.791       5.686       4.604       3.508       2.378       1.212      1.2141E-02
   9    9.990       8.959       7.908       6.836       5.747       4.649       3.532       2.388       1.215      1.2173E-02
  10    9.990       8.962       7.916       6.850       5.766       4.663       3.540       2.392       1.216      1.2185E-02

 HEAD WILL BE SAVED ON UNIT   51 AT END OF TIME STEP  38, STRESS PERIOD    3

 DRAWDOWN WILL BE SAVED ON UNIT   52 AT END OF TIME STEP  38, STRESS PERIOD    3
1
  VOLUMETRIC BUDGET FOR ENTIRE MODEL AT END OF TIME STEP 38 IN STRESS PERIOD   3
  ------------------------------------------------------------------------------

     CUMULATIVE VOLUMES      L**3       RATES FOR THIS TIME STEP      L**3/T
     ------------------                 ------------------------

           IN:                                      IN:
           ---                                      ---
             STORAGE =       11116.1553               STORAGE =         276.5283
       CONSTANT HEAD =           0.0000         CONSTANT HEAD =           0.0000
               WELLS =           0.0000                 WELLS =           0.0000
     HEAD DEP BOUNDS =       84978.0391       HEAD DEP BOUNDS =         627.7842

            TOTAL IN =       96094.1953              TOTAL IN =         904.3125

          OUT:                                     OUT:
          ----                                     ----
             STORAGE =           0.5783               STORAGE =           0.0000
       CONSTANT HEAD =           0.0000         CONSTANT HEAD =           0.0000
               WELLS =       11400.0000                 WELLS =         300.0000
     HEAD DEP BOUNDS =       84691.3906       HEAD DEP BOUNDS =         604.3142

           TOTAL OUT =       96091.9688             TOTAL OUT =         904.3142

            IN - OUT =           2.2266              IN - OUT =      -1.7090E-03

 PERCENT DISCREPANCY =           0.00     PERCENT DISCREPANCY =           0.00






          TIME SUMMARY AT END OF TIME STEP  38 IN STRESS PERIOD    3
                    SECONDS     MINUTES      HOURS       DAYS        YEARS
                    -----------------------------------------------------------
   TIME STEP LENGTH  86400.      1440.0      24.000      1.0000     2.73785E-03
 STRESS PERIOD TIME 3.28320E+06  54720.      912.00      38.000     0.10404    
         TOTAL TIME 1.20096E+07 2.00160E+05  3336.0      139.00     0.38056    
1
 
 SOLVING FOR HEAD 

 OUTPUT CONTROL FOR STRESS PERIOD    3   TIME STEP  39
    SAVE HEAD FOR ALL LAYERS
    SAVE DRAWDOWN FOR ALL LAYERS
    SAVE BUDGET
    PRINT HEAD FOR ALL LAYERS
    PRINT BUDGET
 UBDSV1 SAVING "         STORAGE" ON UNIT  53 AT TIME STEP 39, STRESS PERIOD   3
 UBDSV2 SAVING "   CONSTANT HEAD" ON UNIT  53 AT TIME STEP 39, STRESS PERIOD   3
 UBDSV1 SAVING "FLOW RIGHT FACE " ON UNIT  53 AT TIME STEP 39, STRESS PERIOD   3
 UBDSV1 SAVING "FLOW FRONT FACE " ON UNIT  53 AT TIME STEP 39, STRESS PERIOD   3
1
              HEAD IN LAYER   1 AT END OF TIME STEP  39 IN STRESS PERIOD    3
  ---------------------------------------------------------------------------

            1           2           3           4           5           6           7           8           9          10
 ........................................................................................................................
   1    9.990       8.957       7.903       6.827       5.737       4.641       3.527       2.386       1.214      1.2164E-02
   2    9.990       8.948       7.881       6.786       5.680       4.599       3.505       2.376       1.211      1.2134E-02
   3    9.989       8.930       7.828       6.673       5.506       4.484       3.450       2.355       1.204      1.2067E-02
   4    9.989       8.902       7.740       6.443       5.036       4.245       3.356       2.323       1.195      1.1974E-02
   5    9.989       8.881       7.660       6.130       3.714       3.921       3.270       2.300       1.189      1.1916E-02
   6    9.989       8.902       7.740       6.443       5.036       4.246       3.356       2.323       1.195      1.1974E-02
   7    9.990       8.930       7.829       6.674       5.507       4.484       3.450       2.355       1.204      1.2067E-02
   8    9.990       8.949       7.882       6.788       5.683       4.601       3.506       2.377       1.211      1.2136E-02
   9    9.990       8.959       7.907       6.834       5.745       4.648       3.531       2.387       1.215      1.2171E-02
  10    9.990       8.962       7.916       6.849       5.765       4.663       3.540       2.391       1.216      1.2184E-02

 HEAD WILL BE SAVED ON UNIT   51 AT END OF TIME STEP  39, STRESS PERIOD    3

 DRAWDOWN WILL BE SAVED ON UNIT   52 AT END OF TIME STEP  39, STRESS PERIOD    3
1
  VOLUMETRIC BUDGET FOR ENTIRE MODEL AT END OF TIME STEP 39 IN STRESS PERIOD   3
  ------------------------------------------------------------------------------

     CUMULATIVE VOLUMES      L**3       RATES FOR THIS TIME STEP      L**3/T
     ------------------                 ------------------------

           IN:                                      IN:
           ---                                      ---
             STORAGE =       11391.4180               STORAGE =         275.2631
       CONSTANT HEAD =           0.0000         CONSTANT HEAD =           0.0000
               WELLS =           0.0000                 WELLS =           0.0000
     HEAD DEP BOUNDS =       85606.7188       HEAD DEP BOUNDS =         628.6814

            TOTAL IN =       96998.1406              TOTAL IN =         903.9445

          OUT:                                     OUT:
          ----                                     ----
             STORAGE =           0.5783               STORAGE =           0.0000
       CONSTANT HEAD =           0.0000         CONSTANT HEAD =           0.0000
               WELLS =       11700.0000                 WELLS =         300.0000
     HEAD DEP BOUNDS =       85295.3281       HEAD DEP BOUNDS =         603.9359

           TOTAL OUT =       96995.9062             TOTAL OUT =         903.9359

            IN - OUT =           2.2344              IN - OUT =       8.6060E-03

 PERCENT DISCREPANCY =           0.00     PERCENT DISCREPANCY =           0.00






          TIME SUMMARY AT END OF TIME STEP  39 IN STRESS PERIOD    3
                    SECONDS     MINUTES      HOURS       DAYS        YEARS
                    -----------------------------------------------------------
   TIME STEP LENGTH  86400.      1440.0      24.000      1.0000     2.73785E-03
 STRESS PERIOD TIME 3.36960E+06  56160.      936.00      39.000     0.10678    
         TOTAL TIME 1.20960E+07 2.01600E+05  3360.0      140.00     0.38330    
1
 
 SOLVING FOR HEAD 

 OUTPUT CONTROL FOR STRESS PERIOD    3   TIME STEP  40
    SAVE HEAD FOR ALL LAYERS
    SAVE DRAWDOWN FOR ALL LAYERS
    SAVE BUDGET
    PRINT HEAD FOR ALL LAYERS
    PRINT BUDGET
 UBDSV1 SAVING "         STORAGE" ON UNIT  53 AT TIME STEP 40, STRESS PERIOD   3
 UBDSV2 SAVING "   CONSTANT HEAD" ON UNIT  53 AT TIME STEP 40, STRESS PERIOD   3
 UBDSV1 SAVING "FLOW RIGHT FACE " ON UNIT  53 AT TIME STEP 40, STRESS PERIOD   3
 UBDSV1 SAVING "FLOW FRONT FACE " ON UNIT  53 AT TIME STEP 40, STRESS PERIOD   3
1
              HEAD IN LAYER   1 AT END OF TIME STEP  40 IN STRESS PERIOD    3
  ---------------------------------------------------------------------------

            1           2           3           4           5           6           7           8           9          10
 ........................................................................................................................
   1    9.990       8.956       7.901       6.825       5.735       4.639       3.525       2.385       1.214      1.2161E-02
   2    9.990       8.947       7.879       6.783       5.676       4.595       3.502       2.375       1.210      1.2128E-02
   3    9.989       8.928       7.825       6.668       5.499       4.477       3.446       2.353       1.203      1.2058E-02
   4    9.989       8.899       7.734       6.434       5.025       4.236       3.350       2.319       1.194      1.1960E-02
   5    9.989       8.878       7.653       6.120       3.702       3.910       3.263       2.296       1.188      1.1901E-02
   6    9.989       8.899       7.734       6.434       5.025       4.236       3.350       2.319       1.194      1.1961E-02
   7    9.989       8.928       7.825       6.668       5.500       4.478       3.446       2.353       1.203      1.2058E-02
   8    9.990       8.948       7.880       6.785       5.679       4.597       3.504       2.376       1.211      1.2131E-02
   9    9.990       8.958       7.906       6.833       5.744       4.646       3.530       2.387       1.214      1.2169E-02
  10    9.990       8.962       7.915       6.849       5.764       4.662       3.539       2.391       1.216      1.2183E-02

 HEAD WILL BE SAVED ON UNIT   51 AT END OF TIME STEP  40, STRESS PERIOD    3

 DRAWDOWN WILL BE SAVED ON UNIT   52 AT END OF TIME STEP  40, STRESS PERIOD    3
1
  VOLUMETRIC BUDGET FOR ENTIRE MODEL AT END OF TIME STEP 40 IN STRESS PERIOD   3
  ------------------------------------------------------------------------------

     CUMULATIVE VOLUMES      L**3       RATES FOR THIS TIME STEP      L**3/T
     ------------------                 ------------------------

           IN:                                      IN:
           ---                                      ---
             STORAGE =       11665.3955               STORAGE =         273.9771
       CONSTANT HEAD =           0.0000         CONSTANT HEAD =           0.0000
               WELLS =           0.0000                 WELLS =           0.0000
     HEAD DEP BOUNDS =       86236.2734       HEAD DEP BOUNDS =         629.5574

            TOTAL IN =       97901.6719              TOTAL IN =         903.5345

          OUT:                                     OUT:
          ----                                     ----
             STORAGE =           0.5783               STORAGE =           0.0000
       CONSTANT HEAD =           0.0000         CONSTANT HEAD =           0.0000
               WELLS =       12000.0000                 WELLS =         300.0000
     HEAD DEP BOUNDS =       85898.8750       HEAD DEP BOUNDS =         603.5477

           TOTAL OUT =       97899.4531             TOTAL OUT =         903.5477

            IN - OUT =           2.2188              IN - OUT =      -1.3184E-02

 PERCENT DISCREPANCY =           0.00     PERCENT DISCREPANCY =           0.00






          TIME SUMMARY AT END OF TIME STEP  40 IN STRESS PERIOD    3
                    SECONDS     MINUTES      HOURS       DAYS        YEARS
                    -----------------------------------------------------------
   TIME STEP LENGTH  86400.      1440.0      24.000      1.0000     2.73785E-03
 STRESS PERIOD TIME 3.45600E+06  57600.      960.00      40.000     0.10951    
         TOTAL TIME 1.21824E+07 2.03040E+05  3384.0      141.00     0.38604    
1
 
 SOLVING FOR HEAD 

 OUTPUT CONTROL FOR STRESS PERIOD    3   TIME STEP  41
    SAVE HEAD FOR ALL LAYERS
    SAVE DRAWDOWN FOR ALL LAYERS
    SAVE BUDGET
    PRINT HEAD FOR ALL LAYERS
    PRINT BUDGET
 UBDSV1 SAVING "         STORAGE" ON UNIT  53 AT TIME STEP 41, STRESS PERIOD   3
 UBDSV2 SAVING "   CONSTANT HEAD" ON UNIT  53 AT TIME STEP 41, STRESS PERIOD   3
 UBDSV1 SAVING "FLOW RIGHT FACE " ON UNIT  53 AT TIME STEP 41, STRESS PERIOD   3
 UBDSV1 SAVING "FLOW FRONT FACE " ON UNIT  53 AT TIME STEP 41, STRESS PERIOD   3
1
              HEAD IN LAYER   1 AT END OF TIME STEP  41 IN STRESS PERIOD    3
  ---------------------------------------------------------------------------

            1           2           3           4           5           6           7           8           9          10
 ........................................................................................................................
   1    9.990       8.955       7.900       6.823       5.732       4.637       3.524       2.384       1.213      1.2158E-02
   2    9.990       8.946       7.877       6.779       5.672       4.592       3.500       2.374       1.210      1.2123E-02
   3    9.989       8.926       7.821       6.662       5.492       4.471       3.441       2.350       1.202      1.2048E-02
   4    9.989       8.896       7.728       6.425       5.015       4.227       3.343       2.316       1.192      1.1947E-02
   5    9.989       8.876       7.647       6.110       3.690       3.900       3.256       2.292       1.186      1.1885E-02
   6    9.989       8.896       7.728       6.425       5.015       4.227       3.343       2.316       1.192      1.1947E-02
   7    9.989       8.926       7.821       6.662       5.493       4.472       3.442       2.351       1.202      1.2049E-02
   8    9.990       8.947       7.878       6.781       5.675       4.594       3.501       2.374       1.210      1.2126E-02
   9    9.990       8.958       7.905       6.831       5.742       4.644       3.529       2.386       1.214      1.2166E-02
  10    9.990       8.962       7.914       6.848       5.763       4.661       3.538       2.391       1.216      1.2182E-02

 HEAD WILL BE SAVED ON UNIT   51 AT END OF TIME STEP  41, STRESS PERIOD    3

 DRAWDOWN WILL BE SAVED ON UNIT   52 AT END OF TIME STEP  41, STRESS PERIOD    3
1
  VOLUMETRIC BUDGET FOR ENTIRE MODEL AT END OF TIME STEP 41 IN STRESS PERIOD   3
  ------------------------------------------------------------------------------

     CUMULATIVE VOLUMES      L**3       RATES FOR THIS TIME STEP      L**3/T
     ------------------                 ------------------------

           IN:                                      IN:
           ---                                      ---
             STORAGE =       11938.0762               STORAGE =         272.6802
       CONSTANT HEAD =           0.0000         CONSTANT HEAD =           0.0000
               WELLS =           0.0000                 WELLS =           0.0000
     HEAD DEP BOUNDS =       86866.7344       HEAD DEP BOUNDS =         630.4645

            TOTAL IN =       98804.8125              TOTAL IN =         903.1448

          OUT:                                     OUT:
          ----                                     ----
             STORAGE =           0.5783               STORAGE =           0.0000
       CONSTANT HEAD =           0.0000         CONSTANT HEAD =           0.0000
               WELLS =       12300.0000                 WELLS =         300.0000
     HEAD DEP BOUNDS =       86502.0234       HEAD DEP BOUNDS =         603.1505

           TOTAL OUT =       98802.6016             TOTAL OUT =         903.1505

            IN - OUT =           2.2109              IN - OUT =      -5.7373E-03

 PERCENT DISCREPANCY =           0.00     PERCENT DISCREPANCY =           0.00






          TIME SUMMARY AT END OF TIME STEP  41 IN STRESS PERIOD    3
                    SECONDS     MINUTES      HOURS       DAYS        YEARS
                    -----------------------------------------------------------
   TIME STEP LENGTH  86400.      1440.0      24.000      1.0000     2.73785E-03
 STRESS PERIOD TIME 3.54240E+06  59040.      984.00      41.000     0.11225    
         TOTAL TIME 1.22688E+07 2.04480E+05  3408.0      142.00     0.38877    
1
 
 SOLVING FOR HEAD 

 OUTPUT CONTROL FOR STRESS PERIOD    3   TIME STEP  42
    SAVE HEAD FOR ALL LAYERS
    SAVE DRAWDOWN FOR ALL LAYERS
    SAVE BUDGET
    PRINT HEAD FOR ALL LAYERS
    PRINT BUDGET
 UBDSV1 SAVING "         STORAGE" ON UNIT  53 AT TIME STEP 42, STRESS PERIOD   3
 UBDSV2 SAVING "   CONSTANT HEAD" ON UNIT  53 AT TIME STEP 42, STRESS PERIOD   3
 UBDSV1 SAVING "FLOW RIGHT FACE " ON UNIT  53 AT TIME STEP 42, STRESS PERIOD   3
 UBDSV1 SAVING "FLOW FRONT FACE " ON UNIT  53 AT TIME STEP 42, STRESS PERIOD   3
1
              HEAD IN LAYER   1 AT END OF TIME STEP  42 IN STRESS PERIOD    3
  ---------------------------------------------------------------------------

            1           2           3           4           5           6           7           8           9          10
 ........................................................................................................................
   1    9.990       8.955       7.898       6.821       5.730       4.634       3.522       2.383       1.213      1.2154E-02
   2    9.990       8.945       7.874       6.776       5.668       4.588       3.497       2.372       1.209      1.2117E-02
   3    9.989       8.924       7.817       6.656       5.485       4.465       3.437       2.348       1.201      1.2038E-02
   4    9.989       8.894       7.723       6.417       5.005       4.219       3.337       2.313       1.191      1.1933E-02
   5    9.989       8.873       7.640       6.100       3.678       3.890       3.249       2.288       1.184      1.1869E-02
   6    9.989       8.894       7.723       6.417       5.005       4.219       3.337       2.313       1.191      1.1933E-02
   7    9.989       8.924       7.817       6.656       5.486       4.466       3.437       2.348       1.202      1.2039E-02
   8    9.990       8.946       7.876       6.778       5.671       4.591       3.499       2.373       1.210      1.2120E-02
   9    9.990       8.957       7.904       6.829       5.740       4.643       3.528       2.386       1.214      1.2163E-02
  10    9.990       8.961       7.914       6.847       5.762       4.660       3.538       2.390       1.216      1.2180E-02

 HEAD WILL BE SAVED ON UNIT   51 AT END OF TIME STEP  42, STRESS PERIOD    3

 DRAWDOWN WILL BE SAVED ON UNIT   52 AT END OF TIME STEP  42, STRESS PERIOD    3
1
  VOLUMETRIC BUDGET FOR ENTIRE MODEL AT END OF TIME STEP 42 IN STRESS PERIOD   3
  ------------------------------------------------------------------------------

     CUMULATIVE VOLUMES      L**3       RATES FOR THIS TIME STEP      L**3/T
     ------------------                 ------------------------

           IN:                                      IN:
           ---                                      ---
             STORAGE =       12209.4375               STORAGE =         271.3615
       CONSTANT HEAD =           0.0000         CONSTANT HEAD =           0.0000
               WELLS =           0.0000                 WELLS =           0.0000
     HEAD DEP BOUNDS =       87498.1016       HEAD DEP BOUNDS =         631.3690

            TOTAL IN =       99707.5391              TOTAL IN =         902.7305

          OUT:                                     OUT:
          ----                                     ----
             STORAGE =           0.5783               STORAGE =           0.0000
       CONSTANT HEAD =           0.0000         CONSTANT HEAD =           0.0000
               WELLS =       12600.0000                 WELLS =         300.0000
     HEAD DEP BOUNDS =       87104.7656       HEAD DEP BOUNDS =         602.7391

           TOTAL OUT =       99705.3438             TOTAL OUT =         902.7391

            IN - OUT =           2.1953              IN - OUT =      -8.6060E-03

 PERCENT DISCREPANCY =           0.00     PERCENT DISCREPANCY =           0.00






          TIME SUMMARY AT END OF TIME STEP  42 IN STRESS PERIOD    3
                    SECONDS     MINUTES      HOURS       DAYS        YEARS
                    -----------------------------------------------------------
   TIME STEP LENGTH  86400.      1440.0      24.000      1.0000     2.73785E-03
 STRESS PERIOD TIME 3.62880E+06  60480.      1008.0      42.000     0.11499    
         TOTAL TIME 1.23552E+07 2.05920E+05  3432.0      143.00     0.39151    
1
 
 SOLVING FOR HEAD 

 OUTPUT CONTROL FOR STRESS PERIOD    3   TIME STEP  43
    SAVE HEAD FOR ALL LAYERS
    SAVE DRAWDOWN FOR ALL LAYERS
    SAVE BUDGET
    PRINT HEAD FOR ALL LAYERS
    PRINT BUDGET
 UBDSV1 SAVING "         STORAGE" ON UNIT  53 AT TIME STEP 43, STRESS PERIOD   3
 UBDSV2 SAVING "   CONSTANT HEAD" ON UNIT  53 AT TIME STEP 43, STRESS PERIOD   3
 UBDSV1 SAVING "FLOW RIGHT FACE " ON UNIT  53 AT TIME STEP 43, STRESS PERIOD   3
 UBDSV1 SAVING "FLOW FRONT FACE " ON UNIT  53 AT TIME STEP 43, STRESS PERIOD   3
1
              HEAD IN LAYER   1 AT END OF TIME STEP  43 IN STRESS PERIOD    3
  ---------------------------------------------------------------------------

            1           2           3           4           5           6           7           8           9          10
 ........................................................................................................................
   1    9.990       8.954       7.897       6.819       5.727       4.632       3.521       2.382       1.213      1.2150E-02
   2    9.990       8.944       7.872       6.772       5.664       4.584       3.495       2.371       1.209      1.2111E-02
   3    9.989       8.922       7.813       6.650       5.479       4.459       3.433       2.346       1.200      1.2028E-02
   4    9.989       8.891       7.717       6.409       4.996       4.210       3.331       2.309       1.189      1.1919E-02
   5    9.989       8.870       7.634       6.091       3.667       3.880       3.242       2.284       1.183      1.1853E-02
   6    9.989       8.891       7.717       6.409       4.996       4.210       3.331       2.309       1.189      1.1919E-02
   7    9.989       8.922       7.813       6.651       5.480       4.460       3.433       2.346       1.201      1.2029E-02
   8    9.990       8.945       7.874       6.775       5.667       4.587       3.497       2.372       1.209      1.2114E-02
   9    9.990       8.956       7.903       6.828       5.738       4.641       3.526       2.385       1.214      1.2161E-02
  10    9.990       8.961       7.913       6.846       5.761       4.659       3.537       2.390       1.215      1.2179E-02

 HEAD WILL BE SAVED ON UNIT   51 AT END OF TIME STEP  43, STRESS PERIOD    3

 DRAWDOWN WILL BE SAVED ON UNIT   52 AT END OF TIME STEP  43, STRESS PERIOD    3
1
  VOLUMETRIC BUDGET FOR ENTIRE MODEL AT END OF TIME STEP 43 IN STRESS PERIOD   3
  ------------------------------------------------------------------------------

     CUMULATIVE VOLUMES      L**3       RATES FOR THIS TIME STEP      L**3/T
     ------------------                 ------------------------

           IN:                                      IN:
           ---                                      ---
             STORAGE =       12479.4717               STORAGE =         270.0345
       CONSTANT HEAD =           0.0000         CONSTANT HEAD =           0.0000
               WELLS =           0.0000                 WELLS =           0.0000
     HEAD DEP BOUNDS =       88130.3828       HEAD DEP BOUNDS =         632.2834

            TOTAL IN =      100609.8516              TOTAL IN =         902.3179

          OUT:                                     OUT:
          ----                                     ----
             STORAGE =           0.5783               STORAGE =           0.0000
       CONSTANT HEAD =           0.0000         CONSTANT HEAD =           0.0000
               WELLS =       12900.0000                 WELLS =         300.0000
     HEAD DEP BOUNDS =       87707.0859       HEAD DEP BOUNDS =         602.3186

           TOTAL OUT =      100607.6641             TOTAL OUT =         902.3186

            IN - OUT =           2.1875              IN - OUT =      -7.3242E-04

 PERCENT DISCREPANCY =           0.00     PERCENT DISCREPANCY =           0.00






          TIME SUMMARY AT END OF TIME STEP  43 IN STRESS PERIOD    3
                    SECONDS     MINUTES      HOURS       DAYS        YEARS
                    -----------------------------------------------------------
   TIME STEP LENGTH  86400.      1440.0      24.000      1.0000     2.73785E-03
 STRESS PERIOD TIME 3.71520E+06  61920.      1032.0      43.000     0.11773    
         TOTAL TIME 1.24416E+07 2.07360E+05  3456.0      144.00     0.39425    
1
 
 SOLVING FOR HEAD 

 OUTPUT CONTROL FOR STRESS PERIOD    3   TIME STEP  44
    SAVE HEAD FOR ALL LAYERS
    SAVE DRAWDOWN FOR ALL LAYERS
    SAVE BUDGET
    PRINT HEAD FOR ALL LAYERS
    PRINT BUDGET
 UBDSV1 SAVING "         STORAGE" ON UNIT  53 AT TIME STEP 44, STRESS PERIOD   3
 UBDSV2 SAVING "   CONSTANT HEAD" ON UNIT  53 AT TIME STEP 44, STRESS PERIOD   3
 UBDSV1 SAVING "FLOW RIGHT FACE " ON UNIT  53 AT TIME STEP 44, STRESS PERIOD   3
 UBDSV1 SAVING "FLOW FRONT FACE " ON UNIT  53 AT TIME STEP 44, STRESS PERIOD   3
1
              HEAD IN LAYER   1 AT END OF TIME STEP  44 IN STRESS PERIOD    3
  ---------------------------------------------------------------------------

            1           2           3           4           5           6           7           8           9          10
 ........................................................................................................................
   1    9.990       8.953       7.895       6.816       5.725       4.630       3.519       2.381       1.212      1.2146E-02
   2    9.990       8.943       7.869       6.769       5.660       4.581       3.492       2.369       1.208      1.2105E-02
   3    9.989       8.920       7.809       6.644       5.472       4.453       3.429       2.343       1.199      1.2018E-02
   4    9.989       8.888       7.712       6.400       4.986       4.201       3.325       2.306       1.188      1.1904E-02
   5    9.989       8.867       7.628       6.082       3.656       3.870       3.235       2.281       1.181      1.1837E-02
   6    9.989       8.889       7.712       6.401       4.986       4.202       3.325       2.306       1.188      1.1905E-02
   7    9.989       8.921       7.809       6.645       5.473       4.454       3.429       2.344       1.200      1.2019E-02
   8    9.990       8.944       7.871       6.771       5.664       4.584       3.494       2.370       1.208      1.2109E-02
   9    9.990       8.956       7.901       6.826       5.736       4.639       3.525       2.384       1.213      1.2158E-02
  10    9.990       8.961       7.913       6.845       5.760       4.658       3.537       2.390       1.215      1.2177E-02

 HEAD WILL BE SAVED ON UNIT   51 AT END OF TIME STEP  44, STRESS PERIOD    3

 DRAWDOWN WILL BE SAVED ON UNIT   52 AT END OF TIME STEP  44, STRESS PERIOD    3
1
  VOLUMETRIC BUDGET FOR ENTIRE MODEL AT END OF TIME STEP 44 IN STRESS PERIOD   3
  ------------------------------------------------------------------------------

     CUMULATIVE VOLUMES      L**3       RATES FOR THIS TIME STEP      L**3/T
     ------------------                 ------------------------

           IN:                                      IN:
           ---                                      ---
             STORAGE =       12748.1582               STORAGE =         268.6870
       CONSTANT HEAD =           0.0000         CONSTANT HEAD =           0.0000
               WELLS =           0.0000                 WELLS =           0.0000
     HEAD DEP BOUNDS =       88763.5859       HEAD DEP BOUNDS =         633.2004

            TOTAL IN =      101511.7422              TOTAL IN =         901.8874

          OUT:                                     OUT:
          ----                                     ----
             STORAGE =           0.5783               STORAGE =           0.0000
       CONSTANT HEAD =           0.0000         CONSTANT HEAD =           0.0000
               WELLS =       13200.0000                 WELLS =         300.0000
     HEAD DEP BOUNDS =       88308.9766       HEAD DEP BOUNDS =         601.8885

           TOTAL OUT =      101509.5547             TOTAL OUT =         901.8885

            IN - OUT =           2.1875              IN - OUT =      -1.0986E-03

 PERCENT DISCREPANCY =           0.00     PERCENT DISCREPANCY =           0.00






          TIME SUMMARY AT END OF TIME STEP  44 IN STRESS PERIOD    3
                    SECONDS     MINUTES      HOURS       DAYS        YEARS
                    -----------------------------------------------------------
   TIME STEP LENGTH  86400.      1440.0      24.000      1.0000     2.73785E-03
 STRESS PERIOD TIME 3.80160E+06  63360.      1056.0      44.000     0.12047    
         TOTAL TIME 1.25280E+07 2.08800E+05  3480.0      145.00     0.39699    
1
 
 SOLVING FOR HEAD 

 OUTPUT CONTROL FOR STRESS PERIOD    3   TIME STEP  45
    SAVE HEAD FOR ALL LAYERS
    SAVE DRAWDOWN FOR ALL LAYERS
    SAVE BUDGET
    PRINT HEAD FOR ALL LAYERS
    PRINT BUDGET
 UBDSV1 SAVING "         STORAGE" ON UNIT  53 AT TIME STEP 45, STRESS PERIOD   3
 UBDSV2 SAVING "   CONSTANT HEAD" ON UNIT  53 AT TIME STEP 45, STRESS PERIOD   3
 UBDSV1 SAVING "FLOW RIGHT FACE " ON UNIT  53 AT TIME STEP 45, STRESS PERIOD   3
 UBDSV1 SAVING "FLOW FRONT FACE " ON UNIT  53 AT TIME STEP 45, STRESS PERIOD   3
1
              HEAD IN LAYER   1 AT END OF TIME STEP  45 IN STRESS PERIOD    3
  ---------------------------------------------------------------------------

            1           2           3           4           5           6           7           8           9          10
 ........................................................................................................................
   1    9.990       8.952       7.894       6.814       5.722       4.627       3.517       2.380       1.212      1.2142E-02
   2    9.990       8.942       7.867       6.765       5.656       4.577       3.490       2.368       1.207      1.2099E-02
   3    9.989       8.919       7.805       6.638       5.465       4.447       3.424       2.341       1.198      1.2008E-02
   4    9.989       8.886       7.706       6.393       4.977       4.193       3.319       2.303       1.187      1.1890E-02
   5    9.989       8.864       7.622       6.073       3.645       3.861       3.229       2.277       1.180      1.1821E-02
   6    9.989       8.886       7.707       6.393       4.977       4.193       3.319       2.303       1.187      1.1890E-02
   7    9.989       8.919       7.806       6.639       5.466       4.448       3.425       2.341       1.199      1.2009E-02
   8    9.990       8.943       7.869       6.768       5.660       4.580       3.492       2.369       1.208      1.2103E-02
   9    9.990       8.955       7.900       6.824       5.734       4.638       3.524       2.384       1.213      1.2155E-02
  10    9.990       8.960       7.912       6.844       5.759       4.658       3.536       2.389       1.215      1.2176E-02

 HEAD WILL BE SAVED ON UNIT   51 AT END OF TIME STEP  45, STRESS PERIOD    3

 DRAWDOWN WILL BE SAVED ON UNIT   52 AT END OF TIME STEP  45, STRESS PERIOD    3
1
  VOLUMETRIC BUDGET FOR ENTIRE MODEL AT END OF TIME STEP 45 IN STRESS PERIOD   3
  ------------------------------------------------------------------------------

     CUMULATIVE VOLUMES      L**3       RATES FOR THIS TIME STEP      L**3/T
     ------------------                 ------------------------

           IN:                                      IN:
           ---                                      ---
             STORAGE =       13015.4971               STORAGE =         267.3387
       CONSTANT HEAD =           0.0000         CONSTANT HEAD =           0.0000
               WELLS =           0.0000                 WELLS =           0.0000
     HEAD DEP BOUNDS =       89397.7031       HEAD DEP BOUNDS =         634.1194

            TOTAL IN =      102413.2031              TOTAL IN =         901.4581

          OUT:                                     OUT:
          ----                                     ----
             STORAGE =           0.5783               STORAGE =           0.0000
       CONSTANT HEAD =           0.0000         CONSTANT HEAD =           0.0000
               WELLS =       13500.0000                 WELLS =         300.0000
     HEAD DEP BOUNDS =       88910.4297       HEAD DEP BOUNDS =         601.4523

           TOTAL OUT =      102411.0078             TOTAL OUT =         901.4523

            IN - OUT =           2.1953              IN - OUT =       5.7373E-03

 PERCENT DISCREPANCY =           0.00     PERCENT DISCREPANCY =           0.00






          TIME SUMMARY AT END OF TIME STEP  45 IN STRESS PERIOD    3
                    SECONDS     MINUTES      HOURS       DAYS        YEARS
                    -----------------------------------------------------------
   TIME STEP LENGTH  86400.      1440.0      24.000      1.0000     2.73785E-03
 STRESS PERIOD TIME 3.88800E+06  64800.      1080.0      45.000     0.12320    
         TOTAL TIME 1.26144E+07 2.10240E+05  3504.0      146.00     0.39973    
1
 
 SOLVING FOR HEAD 

 OUTPUT CONTROL FOR STRESS PERIOD    3   TIME STEP  46
    SAVE HEAD FOR ALL LAYERS
    SAVE DRAWDOWN FOR ALL LAYERS
    SAVE BUDGET
    PRINT HEAD FOR ALL LAYERS
    PRINT BUDGET
 UBDSV1 SAVING "         STORAGE" ON UNIT  53 AT TIME STEP 46, STRESS PERIOD   3
 UBDSV2 SAVING "   CONSTANT HEAD" ON UNIT  53 AT TIME STEP 46, STRESS PERIOD   3
 UBDSV1 SAVING "FLOW RIGHT FACE " ON UNIT  53 AT TIME STEP 46, STRESS PERIOD   3
 UBDSV1 SAVING "FLOW FRONT FACE " ON UNIT  53 AT TIME STEP 46, STRESS PERIOD   3
1
              HEAD IN LAYER   1 AT END OF TIME STEP  46 IN STRESS PERIOD    3
  ---------------------------------------------------------------------------

            1           2           3           4           5           6           7           8           9          10
 ........................................................................................................................
   1    9.990       8.952       7.892       6.812       5.719       4.625       3.516       2.379       1.211      1.2138E-02
   2    9.990       8.940       7.865       6.761       5.652       4.574       3.487       2.366       1.207      1.2092E-02
   3    9.989       8.917       7.801       6.633       5.459       4.441       3.420       2.338       1.197      1.1997E-02
   4    9.989       8.883       7.701       6.385       4.968       4.185       3.313       2.299       1.185      1.1875E-02
   5    9.989       8.861       7.616       6.064       3.635       3.851       3.222       2.273       1.178      1.1804E-02
   6    9.989       8.883       7.701       6.385       4.968       4.185       3.314       2.299       1.185      1.1875E-02
   7    9.989       8.917       7.802       6.634       5.460       4.442       3.421       2.339       1.197      1.1998E-02
   8    9.990       8.942       7.867       6.765       5.656       4.577       3.489       2.368       1.207      1.2096E-02
   9    9.990       8.955       7.899       6.823       5.732       4.636       3.523       2.383       1.213      1.2151E-02
  10    9.990       8.960       7.911       6.843       5.758       4.657       3.535       2.389       1.215      1.2174E-02

 HEAD WILL BE SAVED ON UNIT   51 AT END OF TIME STEP  46, STRESS PERIOD    3

 DRAWDOWN WILL BE SAVED ON UNIT   52 AT END OF TIME STEP  46, STRESS PERIOD    3
1
  VOLUMETRIC BUDGET FOR ENTIRE MODEL AT END OF TIME STEP 46 IN STRESS PERIOD   3
  ------------------------------------------------------------------------------

     CUMULATIVE VOLUMES      L**3       RATES FOR THIS TIME STEP      L**3/T
     ------------------                 ------------------------

           IN:                                      IN:
           ---                                      ---
             STORAGE =       13281.4717               STORAGE =         265.9748
       CONSTANT HEAD =           0.0000         CONSTANT HEAD =           0.0000
               WELLS =           0.0000                 WELLS =           0.0000
     HEAD DEP BOUNDS =       90032.7266       HEAD DEP BOUNDS =         635.0266

            TOTAL IN =      103314.1953              TOTAL IN =         901.0013

          OUT:                                     OUT:
          ----                                     ----
             STORAGE =           0.5783               STORAGE =           0.0000
       CONSTANT HEAD =           0.0000         CONSTANT HEAD =           0.0000
               WELLS =       13800.0000                 WELLS =         300.0000
     HEAD DEP BOUNDS =       89511.4375       HEAD DEP BOUNDS =         601.0048

           TOTAL OUT =      103312.0156             TOTAL OUT =         901.0048

            IN - OUT =           2.1797              IN - OUT =      -3.4180E-03

 PERCENT DISCREPANCY =           0.00     PERCENT DISCREPANCY =           0.00






          TIME SUMMARY AT END OF TIME STEP  46 IN STRESS PERIOD    3
                    SECONDS     MINUTES      HOURS       DAYS        YEARS
                    -----------------------------------------------------------
   TIME STEP LENGTH  86400.      1440.0      24.000      1.0000     2.73785E-03
 STRESS PERIOD TIME 3.97440E+06  66240.      1104.0      46.000     0.12594    
         TOTAL TIME 1.27008E+07 2.11680E+05  3528.0      147.00     0.40246    
1
 
 SOLVING FOR HEAD 

 OUTPUT CONTROL FOR STRESS PERIOD    3   TIME STEP  47
    SAVE HEAD FOR ALL LAYERS
    SAVE DRAWDOWN FOR ALL LAYERS
    SAVE BUDGET
    PRINT HEAD FOR ALL LAYERS
    PRINT BUDGET
 UBDSV1 SAVING "         STORAGE" ON UNIT  53 AT TIME STEP 47, STRESS PERIOD   3
 UBDSV2 SAVING "   CONSTANT HEAD" ON UNIT  53 AT TIME STEP 47, STRESS PERIOD   3
 UBDSV1 SAVING "FLOW RIGHT FACE " ON UNIT  53 AT TIME STEP 47, STRESS PERIOD   3
 UBDSV1 SAVING "FLOW FRONT FACE " ON UNIT  53 AT TIME STEP 47, STRESS PERIOD   3
1
              HEAD IN LAYER   1 AT END OF TIME STEP  47 IN STRESS PERIOD    3
  ---------------------------------------------------------------------------

            1           2           3           4           5           6           7           8           9          10
 ........................................................................................................................
   1    9.990       8.951       7.890       6.809       5.717       4.623       3.514       2.378       1.211      1.2133E-02
   2    9.990       8.939       7.862       6.758       5.648       4.570       3.484       2.365       1.206      1.2085E-02
   3    9.989       8.915       7.797       6.627       5.452       4.436       3.416       2.336       1.196      1.1986E-02
   4    9.989       8.881       7.696       6.377       4.959       4.177       3.308       2.296       1.184      1.1860E-02
   5    9.989       8.858       7.610       6.055       3.625       3.842       3.215       2.269       1.176      1.1787E-02
   6    9.989       8.881       7.696       6.377       4.959       4.177       3.308       2.296       1.184      1.1860E-02
   7    9.989       8.915       7.798       6.628       5.454       4.437       3.417       2.336       1.196      1.1988E-02
   8    9.990       8.940       7.865       6.762       5.652       4.574       3.487       2.366       1.207      1.2090E-02
   9    9.990       8.954       7.898       6.821       5.730       4.634       3.521       2.382       1.212      1.2148E-02
  10    9.990       8.960       7.910       6.842       5.757       4.655       3.534       2.388       1.215      1.2172E-02

 HEAD WILL BE SAVED ON UNIT   51 AT END OF TIME STEP  47, STRESS PERIOD    3

 DRAWDOWN WILL BE SAVED ON UNIT   52 AT END OF TIME STEP  47, STRESS PERIOD    3
1
  VOLUMETRIC BUDGET FOR ENTIRE MODEL AT END OF TIME STEP 47 IN STRESS PERIOD   3
  ------------------------------------------------------------------------------

     CUMULATIVE VOLUMES      L**3       RATES FOR THIS TIME STEP      L**3/T
     ------------------                 ------------------------

           IN:                                      IN:
           ---                                      ---
             STORAGE =       13546.0645               STORAGE =         264.5926
       CONSTANT HEAD =           0.0000         CONSTANT HEAD =           0.0000
               WELLS =           0.0000                 WELLS =           0.0000
     HEAD DEP BOUNDS =       90668.6719       HEAD DEP BOUNDS =         635.9414

            TOTAL IN =      104214.7344              TOTAL IN =         900.5340

          OUT:                                     OUT:
          ----                                     ----
             STORAGE =           0.5783               STORAGE =           0.0000
       CONSTANT HEAD =           0.0000         CONSTANT HEAD =           0.0000
               WELLS =       14100.0000                 WELLS =         300.0000
     HEAD DEP BOUNDS =       90111.9844       HEAD DEP BOUNDS =         600.5477

           TOTAL OUT =      104212.5625             TOTAL OUT =         900.5477

            IN - OUT =           2.1719              IN - OUT =      -1.3733E-02

 PERCENT DISCREPANCY =           0.00     PERCENT DISCREPANCY =           0.00






          TIME SUMMARY AT END OF TIME STEP  47 IN STRESS PERIOD    3
                    SECONDS     MINUTES      HOURS       DAYS        YEARS
                    -----------------------------------------------------------
   TIME STEP LENGTH  86400.      1440.0      24.000      1.0000     2.73785E-03
 STRESS PERIOD TIME 4.06080E+06  67680.      1128.0      47.000     0.12868    
         TOTAL TIME 1.27872E+07 2.13120E+05  3552.0      148.00     0.40520    
1
 
 SOLVING FOR HEAD 

 OUTPUT CONTROL FOR STRESS PERIOD    3   TIME STEP  48
    SAVE HEAD FOR ALL LAYERS
    SAVE DRAWDOWN FOR ALL LAYERS
    SAVE BUDGET
    PRINT HEAD FOR ALL LAYERS
    PRINT BUDGET
 UBDSV1 SAVING "         STORAGE" ON UNIT  53 AT TIME STEP 48, STRESS PERIOD   3
 UBDSV2 SAVING "   CONSTANT HEAD" ON UNIT  53 AT TIME STEP 48, STRESS PERIOD   3
 UBDSV1 SAVING "FLOW RIGHT FACE " ON UNIT  53 AT TIME STEP 48, STRESS PERIOD   3
 UBDSV1 SAVING "FLOW FRONT FACE " ON UNIT  53 AT TIME STEP 48, STRESS PERIOD   3
1
              HEAD IN LAYER   1 AT END OF TIME STEP  48 IN STRESS PERIOD    3
  ---------------------------------------------------------------------------

            1           2           3           4           5           6           7           8           9          10
 ........................................................................................................................
   1    9.990       8.950       7.889       6.807       5.714       4.620       3.512       2.377       1.210      1.2129E-02
   2    9.990       8.938       7.860       6.754       5.644       4.566       3.482       2.363       1.205      1.2078E-02
   3    9.989       8.913       7.793       6.622       5.446       4.430       3.412       2.333       1.195      1.1975E-02
   4    9.989       8.878       7.691       6.369       4.950       4.169       3.302       2.292       1.182      1.1845E-02
   5    9.989       8.855       7.605       6.047       3.615       3.833       3.209       2.265       1.175      1.1770E-02
   6    9.989       8.878       7.691       6.370       4.950       4.169       3.302       2.292       1.182      1.1845E-02
   7    9.989       8.913       7.794       6.623       5.447       4.431       3.412       2.334       1.195      1.1977E-02
   8    9.990       8.939       7.862       6.758       5.648       4.570       3.484       2.365       1.206      1.2083E-02
   9    9.990       8.954       7.897       6.819       5.728       4.632       3.520       2.381       1.212      1.2144E-02
  10    9.990       8.959       7.910       6.841       5.755       4.654       3.534       2.388       1.215      1.2170E-02

 HEAD WILL BE SAVED ON UNIT   51 AT END OF TIME STEP  48, STRESS PERIOD    3

 DRAWDOWN WILL BE SAVED ON UNIT   52 AT END OF TIME STEP  48, STRESS PERIOD    3
1
  VOLUMETRIC BUDGET FOR ENTIRE MODEL AT END OF TIME STEP 48 IN STRESS PERIOD   3
  ------------------------------------------------------------------------------

     CUMULATIVE VOLUMES      L**3       RATES FOR THIS TIME STEP      L**3/T
     ------------------                 ------------------------

           IN:                                      IN:
           ---                                      ---
             STORAGE =       13809.2803               STORAGE =         263.2157
       CONSTANT HEAD =           0.0000         CONSTANT HEAD =           0.0000
               WELLS =           0.0000                 WELLS =           0.0000
     HEAD DEP BOUNDS =       91305.5391       HEAD DEP BOUNDS =         636.8633

            TOTAL IN =      105114.8203              TOTAL IN =         900.0790

          OUT:                                     OUT:
          ----                                     ----
             STORAGE =           0.5783               STORAGE =           0.0000
       CONSTANT HEAD =           0.0000         CONSTANT HEAD =           0.0000
               WELLS =       14400.0000                 WELLS =         300.0000
     HEAD DEP BOUNDS =       90712.0703       HEAD DEP BOUNDS =         600.0831

           TOTAL OUT =      105112.6484             TOTAL OUT =         900.0831

            IN - OUT =           2.1719              IN - OUT =      -4.1504E-03

 PERCENT DISCREPANCY =           0.00     PERCENT DISCREPANCY =           0.00






          TIME SUMMARY AT END OF TIME STEP  48 IN STRESS PERIOD    3
                    SECONDS     MINUTES      HOURS       DAYS        YEARS
                    -----------------------------------------------------------
   TIME STEP LENGTH  86400.      1440.0      24.000      1.0000     2.73785E-03
 STRESS PERIOD TIME 4.14720E+06  69120.      1152.0      48.000     0.13142    
         TOTAL TIME 1.28736E+07 2.14560E+05  3576.0      149.00     0.40794    
1
 
 SOLVING FOR HEAD 

 OUTPUT CONTROL FOR STRESS PERIOD    3   TIME STEP  49
    SAVE HEAD FOR ALL LAYERS
    SAVE DRAWDOWN FOR ALL LAYERS
    SAVE BUDGET
    PRINT HEAD FOR ALL LAYERS
    PRINT BUDGET
 UBDSV1 SAVING "         STORAGE" ON UNIT  53 AT TIME STEP 49, STRESS PERIOD   3
 UBDSV2 SAVING "   CONSTANT HEAD" ON UNIT  53 AT TIME STEP 49, STRESS PERIOD   3
 UBDSV1 SAVING "FLOW RIGHT FACE " ON UNIT  53 AT TIME STEP 49, STRESS PERIOD   3
 UBDSV1 SAVING "FLOW FRONT FACE " ON UNIT  53 AT TIME STEP 49, STRESS PERIOD   3
1
              HEAD IN LAYER   1 AT END OF TIME STEP  49 IN STRESS PERIOD    3
  ---------------------------------------------------------------------------

            1           2           3           4           5           6           7           8           9          10
 ........................................................................................................................
   1    9.990       8.949       7.887       6.804       5.711       4.618       3.510       2.376       1.210      1.2124E-02
   2    9.990       8.937       7.857       6.751       5.640       4.562       3.479       2.362       1.205      1.2071E-02
   3    9.989       8.911       7.790       6.616       5.440       4.424       3.407       2.331       1.194      1.1964E-02
   4    9.989       8.876       7.686       6.362       4.942       4.161       3.296       2.289       1.181      1.1830E-02
   5    9.989       8.853       7.599       6.038       3.605       3.825       3.203       2.261       1.173      1.1754E-02
   6    9.989       8.876       7.686       6.362       4.942       4.161       3.296       2.289       1.181      1.1830E-02
   7    9.989       8.911       7.791       6.617       5.441       4.425       3.408       2.331       1.194      1.1966E-02
   8    9.990       8.938       7.860       6.755       5.645       4.567       3.482       2.363       1.205      1.2077E-02
   9    9.990       8.953       7.895       6.817       5.726       4.630       3.519       2.380       1.212      1.2141E-02
  10    9.990       8.959       7.909       6.840       5.754       4.653       3.533       2.387       1.214      1.2168E-02

 HEAD WILL BE SAVED ON UNIT   51 AT END OF TIME STEP  49, STRESS PERIOD    3

 DRAWDOWN WILL BE SAVED ON UNIT   52 AT END OF TIME STEP  49, STRESS PERIOD    3
1
  VOLUMETRIC BUDGET FOR ENTIRE MODEL AT END OF TIME STEP 49 IN STRESS PERIOD   3
  ------------------------------------------------------------------------------

     CUMULATIVE VOLUMES      L**3       RATES FOR THIS TIME STEP      L**3/T
     ------------------                 ------------------------

           IN:                                      IN:
           ---                                      ---
             STORAGE =       14071.1064               STORAGE =         261.8259
       CONSTANT HEAD =           0.0000         CONSTANT HEAD =           0.0000
               WELLS =           0.0000                 WELLS =           0.0000
     HEAD DEP BOUNDS =       91943.3281       HEAD DEP BOUNDS =         637.7919

            TOTAL IN =      106014.4375              TOTAL IN =         899.6179

          OUT:                                     OUT:
          ----                                     ----
             STORAGE =           0.5783               STORAGE =           0.0000
       CONSTANT HEAD =           0.0000         CONSTANT HEAD =           0.0000
               WELLS =       14700.0000                 WELLS =         300.0000
     HEAD DEP BOUNDS =       91311.6875       HEAD DEP BOUNDS =         599.6136

           TOTAL OUT =      106012.2656             TOTAL OUT =         899.6136

            IN - OUT =           2.1719              IN - OUT =       4.2114E-03

 PERCENT DISCREPANCY =           0.00     PERCENT DISCREPANCY =           0.00






          TIME SUMMARY AT END OF TIME STEP  49 IN STRESS PERIOD    3
                    SECONDS     MINUTES      HOURS       DAYS        YEARS
                    -----------------------------------------------------------
   TIME STEP LENGTH  86400.      1440.0      24.000      1.0000     2.73785E-03
 STRESS PERIOD TIME 4.23360E+06  70560.      1176.0      49.000     0.13415    
         TOTAL TIME 1.29600E+07 2.16000E+05  3600.0      150.00     0.41068    
1
 
 SOLVING FOR HEAD 

 OUTPUT CONTROL FOR STRESS PERIOD    3   TIME STEP  50
    SAVE HEAD FOR ALL LAYERS
    SAVE DRAWDOWN FOR ALL LAYERS
    SAVE BUDGET
    PRINT HEAD FOR ALL LAYERS
    PRINT BUDGET
 UBDSV1 SAVING "         STORAGE" ON UNIT  53 AT TIME STEP 50, STRESS PERIOD   3
 UBDSV2 SAVING "   CONSTANT HEAD" ON UNIT  53 AT TIME STEP 50, STRESS PERIOD   3
 UBDSV1 SAVING "FLOW RIGHT FACE " ON UNIT  53 AT TIME STEP 50, STRESS PERIOD   3
 UBDSV1 SAVING "FLOW FRONT FACE " ON UNIT  53 AT TIME STEP 50, STRESS PERIOD   3
1
              HEAD IN LAYER   1 AT END OF TIME STEP  50 IN STRESS PERIOD    3
  ---------------------------------------------------------------------------

            1           2           3           4           5           6           7           8           9          10
 ........................................................................................................................
   1    9.990       8.948       7.885       6.802       5.708       4.615       3.508       2.375       1.209      1.2118E-02
   2    9.990       8.936       7.855       6.747       5.636       4.559       3.476       2.360       1.204      1.2063E-02
   3    9.989       8.909       7.786       6.611       5.434       4.418       3.403       2.328       1.193      1.1952E-02
   4    9.989       8.873       7.681       6.355       4.933       4.153       3.290       2.286       1.179      1.1814E-02
   5    9.989       8.850       7.593       6.030       3.595       3.816       3.196       2.258       1.171      1.1737E-02
   6    9.989       8.873       7.681       6.355       4.934       4.154       3.291       2.286       1.179      1.1815E-02
   7    9.989       8.910       7.787       6.612       5.435       4.420       3.404       2.329       1.193      1.1955E-02
   8    9.990       8.937       7.858       6.752       5.641       4.563       3.479       2.362       1.205      1.2070E-02
   9    9.990       8.952       7.894       6.815       5.724       4.628       3.517       2.380       1.211      1.2137E-02
  10    9.990       8.958       7.908       6.839       5.753       4.652       3.532       2.387       1.214      1.2165E-02

 HEAD WILL BE SAVED ON UNIT   51 AT END OF TIME STEP  50, STRESS PERIOD    3

 DRAWDOWN WILL BE SAVED ON UNIT   52 AT END OF TIME STEP  50, STRESS PERIOD    3
1
  VOLUMETRIC BUDGET FOR ENTIRE MODEL AT END OF TIME STEP 50 IN STRESS PERIOD   3
  ------------------------------------------------------------------------------

     CUMULATIVE VOLUMES      L**3       RATES FOR THIS TIME STEP      L**3/T
     ------------------                 ------------------------

           IN:                                      IN:
           ---                                      ---
             STORAGE =       14331.5283               STORAGE =         260.4216
       CONSTANT HEAD =           0.0000         CONSTANT HEAD =           0.0000
               WELLS =           0.0000                 WELLS =           0.0000
     HEAD DEP BOUNDS =       92582.0312       HEAD DEP BOUNDS =         638.7068

            TOTAL IN =      106913.5625              TOTAL IN =         899.1284

          OUT:                                     OUT:
          ----                                     ----
             STORAGE =           0.5783               STORAGE =           0.0000
       CONSTANT HEAD =           0.0000         CONSTANT HEAD =           0.0000
               WELLS =       15000.0000                 WELLS =         300.0000
     HEAD DEP BOUNDS =       91910.8203       HEAD DEP BOUNDS =         599.1323

           TOTAL OUT =      106911.3984             TOTAL OUT =         899.1323

            IN - OUT =           2.1641              IN - OUT =      -3.9673E-03

 PERCENT DISCREPANCY =           0.00     PERCENT DISCREPANCY =           0.00






          TIME SUMMARY AT END OF TIME STEP  50 IN STRESS PERIOD    3
                    SECONDS     MINUTES      HOURS       DAYS        YEARS
                    -----------------------------------------------------------
   TIME STEP LENGTH  86400.      1440.0      24.000      1.0000     2.73785E-03
 STRESS PERIOD TIME 4.32000E+06  72000.      1200.0      50.000     0.13689    
         TOTAL TIME 1.30464E+07 2.17440E+05  3624.0      151.00     0.41342    
1
 
 SOLVING FOR HEAD 

 OUTPUT CONTROL FOR STRESS PERIOD    3   TIME STEP  51
    SAVE HEAD FOR ALL LAYERS
    SAVE DRAWDOWN FOR ALL LAYERS
    SAVE BUDGET
    PRINT HEAD FOR ALL LAYERS
    PRINT BUDGET
 UBDSV1 SAVING "         STORAGE" ON UNIT  53 AT TIME STEP 51, STRESS PERIOD   3
 UBDSV2 SAVING "   CONSTANT HEAD" ON UNIT  53 AT TIME STEP 51, STRESS PERIOD   3
 UBDSV1 SAVING "FLOW RIGHT FACE " ON UNIT  53 AT TIME STEP 51, STRESS PERIOD   3
 UBDSV1 SAVING "FLOW FRONT FACE " ON UNIT  53 AT TIME STEP 51, STRESS PERIOD   3
1
              HEAD IN LAYER   1 AT END OF TIME STEP  51 IN STRESS PERIOD    3
  ---------------------------------------------------------------------------

            1           2           3           4           5           6           7           8           9          10
 ........................................................................................................................
   1    9.990       8.947       7.883       6.799       5.705       4.612       3.506       2.374       1.209      1.2113E-02
   2    9.990       8.934       7.852       6.743       5.632       4.555       3.473       2.358       1.203      1.2055E-02
   3    9.989       8.907       7.782       6.605       5.427       4.413       3.399       2.326       1.192      1.1941E-02
   4    9.989       8.871       7.676       6.348       4.925       4.146       3.285       2.282       1.178      1.1799E-02
   5    9.989       8.847       7.588       6.022       3.586       3.808       3.190       2.254       1.170      1.1720E-02
   6    9.989       8.871       7.676       6.348       4.925       4.146       3.285       2.282       1.178      1.1800E-02
   7    9.989       8.908       7.783       6.607       5.429       4.414       3.400       2.326       1.192      1.1943E-02
   8    9.990       8.936       7.855       6.748       5.637       4.560       3.477       2.360       1.204      1.2063E-02
   9    9.990       8.952       7.893       6.814       5.722       4.627       3.516       2.379       1.211      1.2133E-02
  10    9.990       8.958       7.907       6.838       5.752       4.651       3.531       2.386       1.214      1.2163E-02

 HEAD WILL BE SAVED ON UNIT   51 AT END OF TIME STEP  51, STRESS PERIOD    3

 DRAWDOWN WILL BE SAVED ON UNIT   52 AT END OF TIME STEP  51, STRESS PERIOD    3
1
  VOLUMETRIC BUDGET FOR ENTIRE MODEL AT END OF TIME STEP 51 IN STRESS PERIOD   3
  ------------------------------------------------------------------------------

     CUMULATIVE VOLUMES      L**3       RATES FOR THIS TIME STEP      L**3/T
     ------------------                 ------------------------

           IN:                                      IN:
           ---                                      ---
             STORAGE =       14590.5479               STORAGE =         259.0198
       CONSTANT HEAD =           0.0000         CONSTANT HEAD =           0.0000
               WELLS =           0.0000                 WELLS =           0.0000
     HEAD DEP BOUNDS =       93221.6562       HEAD DEP BOUNDS =         639.6275

            TOTAL IN =      107812.2031              TOTAL IN =         898.6473

          OUT:                                     OUT:
          ----                                     ----
             STORAGE =           0.5783               STORAGE =           0.0000
       CONSTANT HEAD =           0.0000         CONSTANT HEAD =           0.0000
               WELLS =       15300.0000                 WELLS =         300.0000
     HEAD DEP BOUNDS =       92509.4688       HEAD DEP BOUNDS =         598.6468

           TOTAL OUT =      107810.0469             TOTAL OUT =         898.6468

            IN - OUT =           2.1562              IN - OUT =       4.8828E-04

 PERCENT DISCREPANCY =           0.00     PERCENT DISCREPANCY =           0.00






          TIME SUMMARY AT END OF TIME STEP  51 IN STRESS PERIOD    3
                    SECONDS     MINUTES      HOURS       DAYS        YEARS
                    -----------------------------------------------------------
   TIME STEP LENGTH  86400.      1440.0      24.000      1.0000     2.73785E-03
 STRESS PERIOD TIME 4.40640E+06  73440.      1224.0      51.000     0.13963    
         TOTAL TIME 1.31328E+07 2.18880E+05  3648.0      152.00     0.41615    
1
 
 SOLVING FOR HEAD 

 OUTPUT CONTROL FOR STRESS PERIOD    3   TIME STEP  52
    SAVE HEAD FOR ALL LAYERS
    SAVE DRAWDOWN FOR ALL LAYERS
    SAVE BUDGET
    PRINT HEAD FOR ALL LAYERS
    PRINT BUDGET
 UBDSV1 SAVING "         STORAGE" ON UNIT  53 AT TIME STEP 52, STRESS PERIOD   3
 UBDSV2 SAVING "   CONSTANT HEAD" ON UNIT  53 AT TIME STEP 52, STRESS PERIOD   3
 UBDSV1 SAVING "FLOW RIGHT FACE " ON UNIT  53 AT TIME STEP 52, STRESS PERIOD   3
 UBDSV1 SAVING "FLOW FRONT FACE " ON UNIT  53 AT TIME STEP 52, STRESS PERIOD   3
1
              HEAD IN LAYER   1 AT END OF TIME STEP  52 IN STRESS PERIOD    3
  ---------------------------------------------------------------------------

            1           2           3           4           5           6           7           8           9          10
 ........................................................................................................................
   1    9.990       8.946       7.881       6.797       5.703       4.610       3.504       2.373       1.208      1.2107E-02
   2    9.990       8.933       7.849       6.740       5.628       4.551       3.471       2.357       1.202      1.2048E-02
   3    9.989       8.905       7.778       6.600       5.421       4.407       3.395       2.323       1.191      1.1929E-02
   4    9.989       8.868       7.671       6.341       4.917       4.138       3.279       2.279       1.176      1.1783E-02
   5    9.989       8.845       7.582       6.014       3.577       3.799       3.184       2.250       1.168      1.1702E-02
   6    9.989       8.869       7.671       6.341       4.917       4.139       3.279       2.279       1.176      1.1784E-02
   7    9.989       8.906       7.779       6.602       5.423       4.409       3.396       2.324       1.191      1.1932E-02
   8    9.990       8.935       7.853       6.745       5.633       4.556       3.474       2.358       1.203      1.2056E-02
   9    9.990       8.951       7.891       6.812       5.720       4.625       3.514       2.378       1.211      1.2129E-02
  10    9.990       8.958       7.906       6.837       5.750       4.650       3.530       2.386       1.214      1.2161E-02

 HEAD WILL BE SAVED ON UNIT   51 AT END OF TIME STEP  52, STRESS PERIOD    3

 DRAWDOWN WILL BE SAVED ON UNIT   52 AT END OF TIME STEP  52, STRESS PERIOD    3
1
  VOLUMETRIC BUDGET FOR ENTIRE MODEL AT END OF TIME STEP 52 IN STRESS PERIOD   3
  ------------------------------------------------------------------------------

     CUMULATIVE VOLUMES      L**3       RATES FOR THIS TIME STEP      L**3/T
     ------------------                 ------------------------

           IN:                                      IN:
           ---                                      ---
             STORAGE =       14848.1553               STORAGE =         257.6077
       CONSTANT HEAD =           0.0000         CONSTANT HEAD =           0.0000
               WELLS =           0.0000                 WELLS =           0.0000
     HEAD DEP BOUNDS =       93862.1953       HEAD DEP BOUNDS =         640.5404

            TOTAL IN =      108710.3516              TOTAL IN =         898.1481

          OUT:                                     OUT:
          ----                                     ----
             STORAGE =           0.5783               STORAGE =           0.0000
       CONSTANT HEAD =           0.0000         CONSTANT HEAD =           0.0000
               WELLS =       15600.0000                 WELLS =         300.0000
     HEAD DEP BOUNDS =       93107.6250       HEAD DEP BOUNDS =         598.1541

           TOTAL OUT =      108708.2031             TOTAL OUT =         898.1541

            IN - OUT =           2.1484              IN - OUT =      -6.0425E-03

 PERCENT DISCREPANCY =           0.00     PERCENT DISCREPANCY =           0.00






          TIME SUMMARY AT END OF TIME STEP  52 IN STRESS PERIOD    3
                    SECONDS     MINUTES      HOURS       DAYS        YEARS
                    -----------------------------------------------------------
   TIME STEP LENGTH  86400.      1440.0      24.000      1.0000     2.73785E-03
 STRESS PERIOD TIME 4.49280E+06  74880.      1248.0      52.000     0.14237    
         TOTAL TIME 1.32192E+07 2.20320E+05  3672.0      153.00     0.41889    
1
 
 SOLVING FOR HEAD 

 OUTPUT CONTROL FOR STRESS PERIOD    3   TIME STEP  53
    SAVE HEAD FOR ALL LAYERS
    SAVE DRAWDOWN FOR ALL LAYERS
    SAVE BUDGET
    PRINT HEAD FOR ALL LAYERS
    PRINT BUDGET
 UBDSV1 SAVING "         STORAGE" ON UNIT  53 AT TIME STEP 53, STRESS PERIOD   3
 UBDSV2 SAVING "   CONSTANT HEAD" ON UNIT  53 AT TIME STEP 53, STRESS PERIOD   3
 UBDSV1 SAVING "FLOW RIGHT FACE " ON UNIT  53 AT TIME STEP 53, STRESS PERIOD   3
 UBDSV1 SAVING "FLOW FRONT FACE " ON UNIT  53 AT TIME STEP 53, STRESS PERIOD   3
1
              HEAD IN LAYER   1 AT END OF TIME STEP  53 IN STRESS PERIOD    3
  ---------------------------------------------------------------------------

            1           2           3           4           5           6           7           8           9          10
 ........................................................................................................................
   1    9.990       8.945       7.880       6.794       5.700       4.607       3.502       2.371       1.208      1.2101E-02
   2    9.990       8.932       7.847       6.736       5.623       4.548       3.468       2.355       1.202      1.2040E-02
   3    9.989       8.904       7.775       6.595       5.415       4.402       3.391       2.321       1.189      1.1917E-02
   4    9.989       8.866       7.666       6.334       4.909       4.131       3.274       2.275       1.175      1.1768E-02
   5    9.989       8.842       7.577       6.007       3.568       3.791       3.178       2.246       1.166      1.1685E-02
   6    9.989       8.866       7.666       6.334       4.909       4.132       3.274       2.276       1.175      1.1769E-02
   7    9.989       8.904       7.776       6.596       5.417       4.403       3.392       2.321       1.190      1.1920E-02
   8    9.990       8.933       7.851       6.742       5.630       4.553       3.471       2.357       1.202      1.2048E-02
   9    9.990       8.950       7.890       6.810       5.718       4.623       3.513       2.377       1.210      1.2125E-02
  10    9.990       8.957       7.906       6.835       5.749       4.649       3.529       2.385       1.213      1.2158E-02

 HEAD WILL BE SAVED ON UNIT   51 AT END OF TIME STEP  53, STRESS PERIOD    3

 DRAWDOWN WILL BE SAVED ON UNIT   52 AT END OF TIME STEP  53, STRESS PERIOD    3
1
  VOLUMETRIC BUDGET FOR ENTIRE MODEL AT END OF TIME STEP 53 IN STRESS PERIOD   3
  ------------------------------------------------------------------------------

     CUMULATIVE VOLUMES      L**3       RATES FOR THIS TIME STEP      L**3/T
     ------------------                 ------------------------

           IN:                                      IN:
           ---                                      ---
             STORAGE =       15104.3545               STORAGE =         256.1995
       CONSTANT HEAD =           0.0000         CONSTANT HEAD =           0.0000
               WELLS =           0.0000                 WELLS =           0.0000
     HEAD DEP BOUNDS =       94503.6641       HEAD DEP BOUNDS =         641.4650

            TOTAL IN =      109608.0156              TOTAL IN =         897.6646

          OUT:                                     OUT:
          ----                                     ----
             STORAGE =           0.5783               STORAGE =           0.0000
       CONSTANT HEAD =           0.0000         CONSTANT HEAD =           0.0000
               WELLS =       15900.0000                 WELLS =         300.0000
     HEAD DEP BOUNDS =       93705.2812       HEAD DEP BOUNDS =         597.6528

           TOTAL OUT =      109605.8594             TOTAL OUT =         897.6528

            IN - OUT =           2.1562              IN - OUT =       1.1719E-02

 PERCENT DISCREPANCY =           0.00     PERCENT DISCREPANCY =           0.00






          TIME SUMMARY AT END OF TIME STEP  53 IN STRESS PERIOD    3
                    SECONDS     MINUTES      HOURS       DAYS        YEARS
                    -----------------------------------------------------------
   TIME STEP LENGTH  86400.      1440.0      24.000      1.0000     2.73785E-03
 STRESS PERIOD TIME 4.57920E+06  76320.      1272.0      53.000     0.14511    
         TOTAL TIME 1.33056E+07 2.21760E+05  3696.0      154.00     0.42163    
1
 
 SOLVING FOR HEAD 

 OUTPUT CONTROL FOR STRESS PERIOD    3   TIME STEP  54
    SAVE HEAD FOR ALL LAYERS
    SAVE DRAWDOWN FOR ALL LAYERS
    SAVE BUDGET
    PRINT HEAD FOR ALL LAYERS
    PRINT BUDGET
 UBDSV1 SAVING "         STORAGE" ON UNIT  53 AT TIME STEP 54, STRESS PERIOD   3
 UBDSV2 SAVING "   CONSTANT HEAD" ON UNIT  53 AT TIME STEP 54, STRESS PERIOD   3
 UBDSV1 SAVING "FLOW RIGHT FACE " ON UNIT  53 AT TIME STEP 54, STRESS PERIOD   3
 UBDSV1 SAVING "FLOW FRONT FACE " ON UNIT  53 AT TIME STEP 54, STRESS PERIOD   3
1
              HEAD IN LAYER   1 AT END OF TIME STEP  54 IN STRESS PERIOD    3
  ---------------------------------------------------------------------------

            1           2           3           4           5           6           7           8           9          10
 ........................................................................................................................
   1    9.990       8.944       7.878       6.791       5.697       4.604       3.500       2.370       1.207      1.2096E-02
   2    9.990       8.930       7.844       6.733       5.619       4.544       3.465       2.353       1.201      1.2031E-02
   3    9.989       8.902       7.771       6.589       5.409       4.396       3.386       2.318       1.188      1.1905E-02
   4    9.989       8.864       7.661       6.327       4.901       4.124       3.268       2.272       1.173      1.1752E-02
   5    9.989       8.839       7.572       5.999       3.559       3.783       3.172       2.243       1.165      1.1668E-02
   6    9.989       8.864       7.661       6.327       4.902       4.124       3.269       2.272       1.173      1.1753E-02
   7    9.989       8.902       7.772       6.591       5.412       4.398       3.388       2.319       1.189      1.1908E-02
   8    9.990       8.932       7.848       6.738       5.626       4.549       3.469       2.355       1.202      1.2040E-02
   9    9.990       8.949       7.888       6.808       5.716       4.621       3.511       2.376       1.210      1.2121E-02
  10    9.990       8.957       7.905       6.834       5.748       4.647       3.528       2.385       1.213      1.2155E-02

 HEAD WILL BE SAVED ON UNIT   51 AT END OF TIME STEP  54, STRESS PERIOD    3

 DRAWDOWN WILL BE SAVED ON UNIT   52 AT END OF TIME STEP  54, STRESS PERIOD    3
1
  VOLUMETRIC BUDGET FOR ENTIRE MODEL AT END OF TIME STEP 54 IN STRESS PERIOD   3
  ------------------------------------------------------------------------------

     CUMULATIVE VOLUMES      L**3       RATES FOR THIS TIME STEP      L**3/T
     ------------------                 ------------------------

           IN:                                      IN:
           ---                                      ---
             STORAGE =       15359.1318               STORAGE =         254.7772
       CONSTANT HEAD =           0.0000         CONSTANT HEAD =           0.0000
               WELLS =           0.0000                 WELLS =           0.0000
     HEAD DEP BOUNDS =       95146.0469       HEAD DEP BOUNDS =         642.3813

            TOTAL IN =      110505.1797              TOTAL IN =         897.1585

          OUT:                                     OUT:
          ----                                     ----
             STORAGE =           0.5783               STORAGE =           0.0000
       CONSTANT HEAD =           0.0000         CONSTANT HEAD =           0.0000
               WELLS =       16200.0000                 WELLS =         300.0000
     HEAD DEP BOUNDS =       94302.4297       HEAD DEP BOUNDS =         597.1465

           TOTAL OUT =      110503.0078             TOTAL OUT =         897.1465

            IN - OUT =           2.1719              IN - OUT =       1.1963E-02

 PERCENT DISCREPANCY =           0.00     PERCENT DISCREPANCY =           0.00






          TIME SUMMARY AT END OF TIME STEP  54 IN STRESS PERIOD    3
                    SECONDS     MINUTES      HOURS       DAYS        YEARS
                    -----------------------------------------------------------
   TIME STEP LENGTH  86400.      1440.0      24.000      1.0000     2.73785E-03
 STRESS PERIOD TIME 4.66560E+06  77760.      1296.0      54.000     0.14784    
         TOTAL TIME 1.33920E+07 2.23200E+05  3720.0      155.00     0.42437    
1
 
 SOLVING FOR HEAD 

 OUTPUT CONTROL FOR STRESS PERIOD    3   TIME STEP  55
    SAVE HEAD FOR ALL LAYERS
    SAVE DRAWDOWN FOR ALL LAYERS
    SAVE BUDGET
    PRINT HEAD FOR ALL LAYERS
    PRINT BUDGET
 UBDSV1 SAVING "         STORAGE" ON UNIT  53 AT TIME STEP 55, STRESS PERIOD   3
 UBDSV2 SAVING "   CONSTANT HEAD" ON UNIT  53 AT TIME STEP 55, STRESS PERIOD   3
 UBDSV1 SAVING "FLOW RIGHT FACE " ON UNIT  53 AT TIME STEP 55, STRESS PERIOD   3
 UBDSV1 SAVING "FLOW FRONT FACE " ON UNIT  53 AT TIME STEP 55, STRESS PERIOD   3
1
              HEAD IN LAYER   1 AT END OF TIME STEP  55 IN STRESS PERIOD    3
  ---------------------------------------------------------------------------

            1           2           3           4           5           6           7           8           9          10
 ........................................................................................................................
   1    9.990       8.943       7.876       6.789       5.694       4.601       3.498       2.369       1.207      1.2089E-02
   2    9.989       8.929       7.842       6.729       5.615       4.540       3.462       2.351       1.200      1.2023E-02
   3    9.989       8.900       7.767       6.584       5.404       4.391       3.382       2.315       1.187      1.1893E-02
   4    9.989       8.861       7.656       6.320       4.893       4.117       3.263       2.269       1.171      1.1736E-02
   5    9.989       8.837       7.567       5.992       3.550       3.776       3.166       2.239       1.163      1.1651E-02
   6    9.989       8.861       7.657       6.321       4.894       4.117       3.263       2.269       1.172      1.1737E-02
   7    9.989       8.901       7.769       6.586       5.406       4.393       3.384       2.316       1.187      1.1896E-02
   8    9.990       8.931       7.846       6.735       5.622       4.546       3.466       2.354       1.201      1.2033E-02
   9    9.990       8.949       7.887       6.806       5.713       4.619       3.510       2.375       1.209      1.2116E-02
  10    9.990       8.956       7.904       6.833       5.746       4.646       3.527       2.384       1.213      1.2152E-02

 HEAD WILL BE SAVED ON UNIT   51 AT END OF TIME STEP  55, STRESS PERIOD    3

 DRAWDOWN WILL BE SAVED ON UNIT   52 AT END OF TIME STEP  55, STRESS PERIOD    3
1
  VOLUMETRIC BUDGET FOR ENTIRE MODEL AT END OF TIME STEP 55 IN STRESS PERIOD   3
  ------------------------------------------------------------------------------

     CUMULATIVE VOLUMES      L**3       RATES FOR THIS TIME STEP      L**3/T
     ------------------                 ------------------------

           IN:                                      IN:
           ---                                      ---
             STORAGE =       15612.4805               STORAGE =         253.3485
       CONSTANT HEAD =           0.0000         CONSTANT HEAD =           0.0000
               WELLS =           0.0000                 WELLS =           0.0000
     HEAD DEP BOUNDS =       95789.3359       HEAD DEP BOUNDS =         643.2888

            TOTAL IN =      111401.8125              TOTAL IN =         896.6372

          OUT:                                     OUT:
          ----                                     ----
             STORAGE =           0.5783               STORAGE =           0.0000
       CONSTANT HEAD =           0.0000         CONSTANT HEAD =           0.0000
               WELLS =       16500.0000                 WELLS =         300.0000
     HEAD DEP BOUNDS =       94899.0625       HEAD DEP BOUNDS =         596.6347

           TOTAL OUT =      111399.6406             TOTAL OUT =         896.6347

            IN - OUT =           2.1719              IN - OUT =       2.5024E-03

 PERCENT DISCREPANCY =           0.00     PERCENT DISCREPANCY =           0.00






          TIME SUMMARY AT END OF TIME STEP  55 IN STRESS PERIOD    3
                    SECONDS     MINUTES      HOURS       DAYS        YEARS
                    -----------------------------------------------------------
   TIME STEP LENGTH  86400.      1440.0      24.000      1.0000     2.73785E-03
 STRESS PERIOD TIME 4.75200E+06  79200.      1320.0      55.000     0.15058    
         TOTAL TIME 1.34784E+07 2.24640E+05  3744.0      156.00     0.42710    
1
 
 SOLVING FOR HEAD 

 OUTPUT CONTROL FOR STRESS PERIOD    3   TIME STEP  56
    SAVE HEAD FOR ALL LAYERS
    SAVE DRAWDOWN FOR ALL LAYERS
    SAVE BUDGET
    PRINT HEAD FOR ALL LAYERS
    PRINT BUDGET
 UBDSV1 SAVING "         STORAGE" ON UNIT  53 AT TIME STEP 56, STRESS PERIOD   3
 UBDSV2 SAVING "   CONSTANT HEAD" ON UNIT  53 AT TIME STEP 56, STRESS PERIOD   3
 UBDSV1 SAVING "FLOW RIGHT FACE " ON UNIT  53 AT TIME STEP 56, STRESS PERIOD   3
 UBDSV1 SAVING "FLOW FRONT FACE " ON UNIT  53 AT TIME STEP 56, STRESS PERIOD   3
1
              HEAD IN LAYER   1 AT END OF TIME STEP  56 IN STRESS PERIOD    3
  ---------------------------------------------------------------------------

            1           2           3           4           5           6           7           8           9          10
 ........................................................................................................................
   1    9.990       8.942       7.874       6.786       5.691       4.599       3.496       2.367       1.206      1.2083E-02
   2    9.989       8.928       7.839       6.725       5.611       4.536       3.459       2.349       1.199      1.2014E-02
   3    9.989       8.898       7.764       6.579       5.398       4.385       3.378       2.313       1.186      1.1881E-02
   4    9.989       8.859       7.652       6.314       4.886       4.110       3.258       2.265       1.170      1.1720E-02
   5    9.989       8.834       7.562       5.985       3.542       3.768       3.160       2.235       1.161      1.1634E-02
   6    9.989       8.859       7.652       6.314       4.887       4.110       3.258       2.265       1.170      1.1722E-02
   7    9.989       8.899       7.765       6.581       5.400       4.387       3.380       2.314       1.186      1.1884E-02
   8    9.990       8.930       7.844       6.732       5.619       4.543       3.464       2.352       1.200      1.2025E-02
   9    9.990       8.948       7.886       6.804       5.711       4.617       3.508       2.374       1.209      1.2111E-02
  10    9.990       8.956       7.903       6.832       5.745       4.645       3.526       2.384       1.213      1.2149E-02

 HEAD WILL BE SAVED ON UNIT   51 AT END OF TIME STEP  56, STRESS PERIOD    3

 DRAWDOWN WILL BE SAVED ON UNIT   52 AT END OF TIME STEP  56, STRESS PERIOD    3
1
  VOLUMETRIC BUDGET FOR ENTIRE MODEL AT END OF TIME STEP 56 IN STRESS PERIOD   3
  ------------------------------------------------------------------------------

     CUMULATIVE VOLUMES      L**3       RATES FOR THIS TIME STEP      L**3/T
     ------------------                 ------------------------

           IN:                                      IN:
           ---                                      ---
             STORAGE =       15864.4062               STORAGE =         251.9254
       CONSTANT HEAD =           0.0000         CONSTANT HEAD =           0.0000
               WELLS =           0.0000                 WELLS =           0.0000
     HEAD DEP BOUNDS =       96433.5156       HEAD DEP BOUNDS =         644.1805

            TOTAL IN =      112297.9219              TOTAL IN =         896.1058

          OUT:                                     OUT:
          ----                                     ----
             STORAGE =           0.5783               STORAGE =           0.0000
       CONSTANT HEAD =           0.0000         CONSTANT HEAD =           0.0000
               WELLS =       16800.0000                 WELLS =         300.0000
     HEAD DEP BOUNDS =       95495.1797       HEAD DEP BOUNDS =         596.1208

           TOTAL OUT =      112295.7578             TOTAL OUT =         896.1208

            IN - OUT =           2.1641              IN - OUT =      -1.4954E-02

 PERCENT DISCREPANCY =           0.00     PERCENT DISCREPANCY =           0.00






          TIME SUMMARY AT END OF TIME STEP  56 IN STRESS PERIOD    3
                    SECONDS     MINUTES      HOURS       DAYS        YEARS
                    -----------------------------------------------------------
   TIME STEP LENGTH  86400.      1440.0      24.000      1.0000     2.73785E-03
 STRESS PERIOD TIME 4.83840E+06  80640.      1344.0      56.000     0.15332    
         TOTAL TIME 1.35648E+07 2.26080E+05  3768.0      157.00     0.42984    
1
 
 SOLVING FOR HEAD 

 OUTPUT CONTROL FOR STRESS PERIOD    3   TIME STEP  57
    SAVE HEAD FOR ALL LAYERS
    SAVE DRAWDOWN FOR ALL LAYERS
    SAVE BUDGET
    PRINT HEAD FOR ALL LAYERS
    PRINT BUDGET
 UBDSV1 SAVING "         STORAGE" ON UNIT  53 AT TIME STEP 57, STRESS PERIOD   3
 UBDSV2 SAVING "   CONSTANT HEAD" ON UNIT  53 AT TIME STEP 57, STRESS PERIOD   3
 UBDSV1 SAVING "FLOW RIGHT FACE " ON UNIT  53 AT TIME STEP 57, STRESS PERIOD   3
 UBDSV1 SAVING "FLOW FRONT FACE " ON UNIT  53 AT TIME STEP 57, STRESS PERIOD   3
1
              HEAD IN LAYER   1 AT END OF TIME STEP  57 IN STRESS PERIOD    3
  ---------------------------------------------------------------------------

            1           2           3           4           5           6           7           8           9          10
 ........................................................................................................................
   1    9.990       8.941       7.872       6.783       5.688       4.596       3.494       2.366       1.205      1.2077E-02
   2    9.989       8.926       7.836       6.722       5.607       4.532       3.456       2.348       1.198      1.2006E-02
   3    9.989       8.896       7.760       6.574       5.392       4.380       3.374       2.310       1.185      1.1868E-02
   4    9.989       8.857       7.647       6.307       4.878       4.103       3.252       2.262       1.168      1.1705E-02
   5    9.989       8.832       7.557       5.978       3.534       3.760       3.154       2.232       1.159      1.1616E-02
   6    9.989       8.857       7.648       6.308       4.879       4.104       3.253       2.262       1.168      1.1706E-02
   7    9.989       8.897       7.762       6.576       5.395       4.382       3.376       2.311       1.185      1.1872E-02
   8    9.989       8.929       7.841       6.729       5.615       4.539       3.461       2.350       1.199      1.2017E-02
   9    9.990       8.947       7.884       6.802       5.709       4.615       3.507       2.373       1.208      1.2107E-02
  10    9.990       8.955       7.902       6.830       5.743       4.643       3.525       2.383       1.212      1.2146E-02

 HEAD WILL BE SAVED ON UNIT   51 AT END OF TIME STEP  57, STRESS PERIOD    3

 DRAWDOWN WILL BE SAVED ON UNIT   52 AT END OF TIME STEP  57, STRESS PERIOD    3
1
  VOLUMETRIC BUDGET FOR ENTIRE MODEL AT END OF TIME STEP 57 IN STRESS PERIOD   3
  ------------------------------------------------------------------------------

     CUMULATIVE VOLUMES      L**3       RATES FOR THIS TIME STEP      L**3/T
     ------------------                 ------------------------

           IN:                                      IN:
           ---                                      ---
             STORAGE =       16114.9072               STORAGE =         250.5008
       CONSTANT HEAD =           0.0000         CONSTANT HEAD =           0.0000
               WELLS =           0.0000                 WELLS =           0.0000
     HEAD DEP BOUNDS =       97078.6016       HEAD DEP BOUNDS =         645.0828

            TOTAL IN =      113193.5078              TOTAL IN =         895.5836

          OUT:                                     OUT:
          ----                                     ----
             STORAGE =           0.5783               STORAGE =           0.0000
       CONSTANT HEAD =           0.0000         CONSTANT HEAD =           0.0000
               WELLS =       17100.0000                 WELLS =         300.0000
     HEAD DEP BOUNDS =       96090.7813       HEAD DEP BOUNDS =         595.5978

           TOTAL OUT =      113191.3594             TOTAL OUT =         895.5978

            IN - OUT =           2.1484              IN - OUT =      -1.4221E-02

 PERCENT DISCREPANCY =           0.00     PERCENT DISCREPANCY =           0.00






          TIME SUMMARY AT END OF TIME STEP  57 IN STRESS PERIOD    3
                    SECONDS     MINUTES      HOURS       DAYS        YEARS
                    -----------------------------------------------------------
   TIME STEP LENGTH  86400.      1440.0      24.000      1.0000     2.73785E-03
 STRESS PERIOD TIME 4.92480E+06  82080.      1368.0      57.000     0.15606    
         TOTAL TIME 1.36512E+07 2.27520E+05  3792.0      158.00     0.43258    
1
 
 SOLVING FOR HEAD 

 OUTPUT CONTROL FOR STRESS PERIOD    3   TIME STEP  58
    SAVE HEAD FOR ALL LAYERS
    SAVE DRAWDOWN FOR ALL LAYERS
    SAVE BUDGET
    PRINT HEAD FOR ALL LAYERS
    PRINT BUDGET
 UBDSV1 SAVING "         STORAGE" ON UNIT  53 AT TIME STEP 58, STRESS PERIOD   3
 UBDSV2 SAVING "   CONSTANT HEAD" ON UNIT  53 AT TIME STEP 58, STRESS PERIOD   3
 UBDSV1 SAVING "FLOW RIGHT FACE " ON UNIT  53 AT TIME STEP 58, STRESS PERIOD   3
 UBDSV1 SAVING "FLOW FRONT FACE " ON UNIT  53 AT TIME STEP 58, STRESS PERIOD   3
1
              HEAD IN LAYER   1 AT END OF TIME STEP  58 IN STRESS PERIOD    3
  ---------------------------------------------------------------------------

            1           2           3           4           5           6           7           8           9          10
 ........................................................................................................................
   1    9.990       8.940       7.870       6.781       5.685       4.593       3.492       2.365       1.205      1.2070E-02
   2    9.989       8.925       7.834       6.718       5.603       4.529       3.453       2.346       1.197      1.1997E-02
   3    9.989       8.894       7.756       6.569       5.386       4.375       3.370       2.308       1.183      1.1856E-02
   4    9.989       8.854       7.643       6.301       4.871       4.096       3.247       2.259       1.167      1.1689E-02
   5    9.989       8.829       7.552       5.971       3.526       3.753       3.149       2.228       1.158      1.1599E-02
   6    9.989       8.855       7.643       6.301       4.872       4.097       3.247       2.259       1.167      1.1690E-02
   7    9.989       8.895       7.758       6.571       5.389       4.377       3.372       2.309       1.184      1.1860E-02
   8    9.989       8.927       7.839       6.725       5.611       4.536       3.458       2.349       1.199      1.2009E-02
   9    9.990       8.947       7.883       6.800       5.707       4.612       3.505       2.372       1.208      1.2102E-02
  10    9.990       8.955       7.901       6.829       5.742       4.642       3.524       2.382       1.212      1.2143E-02

 HEAD WILL BE SAVED ON UNIT   51 AT END OF TIME STEP  58, STRESS PERIOD    3

 DRAWDOWN WILL BE SAVED ON UNIT   52 AT END OF TIME STEP  58, STRESS PERIOD    3
1
  VOLUMETRIC BUDGET FOR ENTIRE MODEL AT END OF TIME STEP 58 IN STRESS PERIOD   3
  ------------------------------------------------------------------------------

     CUMULATIVE VOLUMES      L**3       RATES FOR THIS TIME STEP      L**3/T
     ------------------                 ------------------------

           IN:                                      IN:
           ---                                      ---
             STORAGE =       16363.9805               STORAGE =         249.0732
       CONSTANT HEAD =           0.0000         CONSTANT HEAD =           0.0000
               WELLS =           0.0000                 WELLS =           0.0000
     HEAD DEP BOUNDS =       97724.5938       HEAD DEP BOUNDS =         645.9955

            TOTAL IN =      114088.5781              TOTAL IN =         895.0687

          OUT:                                     OUT:
          ----                                     ----
             STORAGE =           0.5783               STORAGE =           0.0000
       CONSTANT HEAD =           0.0000         CONSTANT HEAD =           0.0000
               WELLS =       17400.0000                 WELLS =         300.0000
     HEAD DEP BOUNDS =       96685.8516       HEAD DEP BOUNDS =         595.0694

           TOTAL OUT =      114086.4297             TOTAL OUT =         895.0694

            IN - OUT =           2.1484              IN - OUT =      -6.7139E-04

 PERCENT DISCREPANCY =           0.00     PERCENT DISCREPANCY =           0.00






          TIME SUMMARY AT END OF TIME STEP  58 IN STRESS PERIOD    3
                    SECONDS     MINUTES      HOURS       DAYS        YEARS
                    -----------------------------------------------------------
   TIME STEP LENGTH  86400.      1440.0      24.000      1.0000     2.73785E-03
 STRESS PERIOD TIME 5.01120E+06  83520.      1392.0      58.000     0.15880    
         TOTAL TIME 1.37376E+07 2.28960E+05  3816.0      159.00     0.43532    
1
 
 SOLVING FOR HEAD 

 OUTPUT CONTROL FOR STRESS PERIOD    3   TIME STEP  59
    SAVE HEAD FOR ALL LAYERS
    SAVE DRAWDOWN FOR ALL LAYERS
    SAVE BUDGET
    PRINT HEAD FOR ALL LAYERS
    PRINT BUDGET
 UBDSV1 SAVING "         STORAGE" ON UNIT  53 AT TIME STEP 59, STRESS PERIOD   3
 UBDSV2 SAVING "   CONSTANT HEAD" ON UNIT  53 AT TIME STEP 59, STRESS PERIOD   3
 UBDSV1 SAVING "FLOW RIGHT FACE " ON UNIT  53 AT TIME STEP 59, STRESS PERIOD   3
 UBDSV1 SAVING "FLOW FRONT FACE " ON UNIT  53 AT TIME STEP 59, STRESS PERIOD   3
1
              HEAD IN LAYER   1 AT END OF TIME STEP  59 IN STRESS PERIOD    3
  ---------------------------------------------------------------------------

            1           2           3           4           5           6           7           8           9          10
 ........................................................................................................................
   1    9.990       8.939       7.868       6.778       5.681       4.590       3.490       2.363       1.204      1.2063E-02
   2    9.989       8.924       7.831       6.715       5.599       4.525       3.450       2.344       1.196      1.1988E-02
   3    9.989       8.892       7.753       6.564       5.381       4.369       3.366       2.305       1.182      1.1843E-02
   4    9.989       8.852       7.638       6.294       4.864       4.090       3.242       2.255       1.165      1.1673E-02
   5    9.989       8.827       7.547       5.964       3.518       3.746       3.143       2.224       1.156      1.1581E-02
   6    9.989       8.852       7.639       6.295       4.865       4.090       3.242       2.256       1.165      1.1674E-02
   7    9.989       8.893       7.755       6.567       5.384       4.372       3.368       2.306       1.183      1.1848E-02
   8    9.989       8.926       7.836       6.722       5.608       4.532       3.456       2.347       1.198      1.2001E-02
   9    9.990       8.946       7.881       6.798       5.705       4.610       3.504       2.371       1.207      1.2097E-02
  10    9.990       8.954       7.900       6.828       5.740       4.641       3.523       2.382       1.212      1.2140E-02

 HEAD WILL BE SAVED ON UNIT   51 AT END OF TIME STEP  59, STRESS PERIOD    3

 DRAWDOWN WILL BE SAVED ON UNIT   52 AT END OF TIME STEP  59, STRESS PERIOD    3
1
  VOLUMETRIC BUDGET FOR ENTIRE MODEL AT END OF TIME STEP 59 IN STRESS PERIOD   3
  ------------------------------------------------------------------------------

     CUMULATIVE VOLUMES      L**3       RATES FOR THIS TIME STEP      L**3/T
     ------------------                 ------------------------

           IN:                                      IN:
           ---                                      ---
             STORAGE =       16611.6289               STORAGE =         247.6490
       CONSTANT HEAD =           0.0000         CONSTANT HEAD =           0.0000
               WELLS =           0.0000                 WELLS =           0.0000
     HEAD DEP BOUNDS =       98371.4844       HEAD DEP BOUNDS =         646.8919

            TOTAL IN =      114983.1094              TOTAL IN =         894.5409

          OUT:                                     OUT:
          ----                                     ----
             STORAGE =           0.5783               STORAGE =           0.0000
       CONSTANT HEAD =           0.0000         CONSTANT HEAD =           0.0000
               WELLS =       17700.0000                 WELLS =         300.0000
     HEAD DEP BOUNDS =       97280.3906       HEAD DEP BOUNDS =         594.5395

           TOTAL OUT =      114980.9688             TOTAL OUT =         894.5395

            IN - OUT =           2.1406              IN - OUT =       1.4038E-03

 PERCENT DISCREPANCY =           0.00     PERCENT DISCREPANCY =           0.00






          TIME SUMMARY AT END OF TIME STEP  59 IN STRESS PERIOD    3
                    SECONDS     MINUTES      HOURS       DAYS        YEARS
                    -----------------------------------------------------------
   TIME STEP LENGTH  86400.      1440.0      24.000      1.0000     2.73785E-03
 STRESS PERIOD TIME 5.09760E+06  84960.      1416.0      59.000     0.16153    
         TOTAL TIME 1.38240E+07 2.30400E+05  3840.0      160.00     0.43806    
1
 
 SOLVING FOR HEAD 

 OUTPUT CONTROL FOR STRESS PERIOD    3   TIME STEP  60
    SAVE HEAD FOR ALL LAYERS
    SAVE DRAWDOWN FOR ALL LAYERS
    SAVE BUDGET
    PRINT HEAD FOR ALL LAYERS
    PRINT BUDGET
 UBDSV1 SAVING "         STORAGE" ON UNIT  53 AT TIME STEP 60, STRESS PERIOD   3
 UBDSV2 SAVING "   CONSTANT HEAD" ON UNIT  53 AT TIME STEP 60, STRESS PERIOD   3
 UBDSV1 SAVING "FLOW RIGHT FACE " ON UNIT  53 AT TIME STEP 60, STRESS PERIOD   3
 UBDSV1 SAVING "FLOW FRONT FACE " ON UNIT  53 AT TIME STEP 60, STRESS PERIOD   3
1
              HEAD IN LAYER   1 AT END OF TIME STEP  60 IN STRESS PERIOD    3
  ---------------------------------------------------------------------------

            1           2           3           4           5           6           7           8           9          10
 ........................................................................................................................
   1    9.990       8.938       7.866       6.775       5.678       4.587       3.487       2.362       1.203      1.2056E-02
   2    9.989       8.922       7.829       6.711       5.595       4.521       3.447       2.342       1.196      1.1978E-02
   3    9.989       8.891       7.749       6.559       5.375       4.364       3.362       2.302       1.181      1.1831E-02
   4    9.989       8.850       7.634       6.288       4.857       4.083       3.237       2.252       1.164      1.1657E-02
   5    9.988       8.824       7.542       5.957       3.510       3.738       3.137       2.221       1.154      1.1564E-02
   6    9.989       8.850       7.634       6.289       4.858       4.084       3.237       2.252       1.164      1.1658E-02
   7    9.989       8.892       7.751       6.562       5.378       4.367       3.364       2.304       1.181      1.1836E-02
   8    9.989       8.925       7.834       6.719       5.604       4.529       3.453       2.345       1.197      1.1993E-02
   9    9.990       8.945       7.880       6.796       5.702       4.608       3.502       2.370       1.207      1.2092E-02
  10    9.990       8.954       7.899       6.826       5.739       4.639       3.522       2.381       1.211      1.2137E-02

 HEAD WILL BE SAVED ON UNIT   51 AT END OF TIME STEP  60, STRESS PERIOD    3

 DRAWDOWN WILL BE SAVED ON UNIT   52 AT END OF TIME STEP  60, STRESS PERIOD    3
1
  VOLUMETRIC BUDGET FOR ENTIRE MODEL AT END OF TIME STEP 60 IN STRESS PERIOD   3
  ------------------------------------------------------------------------------

     CUMULATIVE VOLUMES      L**3       RATES FOR THIS TIME STEP      L**3/T
     ------------------                 ------------------------

           IN:                                      IN:
           ---                                      ---
             STORAGE =       16857.8457               STORAGE =         246.2164
       CONSTANT HEAD =           0.0000         CONSTANT HEAD =           0.0000
               WELLS =           0.0000                 WELLS =           0.0000
     HEAD DEP BOUNDS =       99019.2656       HEAD DEP BOUNDS =         647.7851

            TOTAL IN =      115877.1094              TOTAL IN =         894.0015

          OUT:                                     OUT:
          ----                                     ----
             STORAGE =           0.5783               STORAGE =           0.0000
       CONSTANT HEAD =           0.0000         CONSTANT HEAD =           0.0000
               WELLS =       18000.0000                 WELLS =         300.0000
     HEAD DEP BOUNDS =       97874.3984       HEAD DEP BOUNDS =         594.0055

           TOTAL OUT =      115874.9766             TOTAL OUT =         894.0055

            IN - OUT =           2.1328              IN - OUT =      -4.0283E-03

 PERCENT DISCREPANCY =           0.00     PERCENT DISCREPANCY =           0.00






          TIME SUMMARY AT END OF TIME STEP  60 IN STRESS PERIOD    3
                    SECONDS     MINUTES      HOURS       DAYS        YEARS
                    -----------------------------------------------------------
   TIME STEP LENGTH  86400.      1440.0      24.000      1.0000     2.73785E-03
 STRESS PERIOD TIME 5.18400E+06  86400.      1440.0      60.000     0.16427    
         TOTAL TIME 1.39104E+07 2.31840E+05  3864.0      161.00     0.44079    
1
 
 SOLVING FOR HEAD 

 OUTPUT CONTROL FOR STRESS PERIOD    3   TIME STEP  61
    SAVE HEAD FOR ALL LAYERS
    SAVE DRAWDOWN FOR ALL LAYERS
    SAVE BUDGET
    PRINT HEAD FOR ALL LAYERS
    PRINT BUDGET
 UBDSV1 SAVING "         STORAGE" ON UNIT  53 AT TIME STEP 61, STRESS PERIOD   3
 UBDSV2 SAVING "   CONSTANT HEAD" ON UNIT  53 AT TIME STEP 61, STRESS PERIOD   3
 UBDSV1 SAVING "FLOW RIGHT FACE " ON UNIT  53 AT TIME STEP 61, STRESS PERIOD   3
 UBDSV1 SAVING "FLOW FRONT FACE " ON UNIT  53 AT TIME STEP 61, STRESS PERIOD   3
1
              HEAD IN LAYER   1 AT END OF TIME STEP  61 IN STRESS PERIOD    3
  ---------------------------------------------------------------------------

            1           2           3           4           5           6           7           8           9          10
 ........................................................................................................................
   1    9.990       8.937       7.864       6.772       5.675       4.584       3.485       2.360       1.203      1.2049E-02
   2    9.989       8.921       7.826       6.707       5.591       4.517       3.444       2.340       1.195      1.1969E-02
   3    9.989       8.889       7.746       6.554       5.370       4.359       3.358       2.300       1.180      1.1818E-02
   4    9.989       8.848       7.629       6.282       4.850       4.076       3.232       2.249       1.162      1.1641E-02
   5    9.988       8.822       7.537       5.950       3.502       3.731       3.132       2.217       1.153      1.1547E-02
   6    9.989       8.848       7.630       6.283       4.851       4.077       3.232       2.249       1.162      1.1642E-02
   7    9.989       8.890       7.748       6.557       5.373       4.362       3.360       2.301       1.180      1.1823E-02
   8    9.989       8.924       7.832       6.716       5.600       4.526       3.450       2.343       1.196      1.1984E-02
   9    9.990       8.944       7.878       6.794       5.700       4.606       3.500       2.369       1.206      1.2087E-02
  10    9.990       8.953       7.898       6.825       5.737       4.638       3.521       2.380       1.211      1.2133E-02

 HEAD WILL BE SAVED ON UNIT   51 AT END OF TIME STEP  61, STRESS PERIOD    3

 DRAWDOWN WILL BE SAVED ON UNIT   52 AT END OF TIME STEP  61, STRESS PERIOD    3
1
  VOLUMETRIC BUDGET FOR ENTIRE MODEL AT END OF TIME STEP 61 IN STRESS PERIOD   3
  ------------------------------------------------------------------------------

     CUMULATIVE VOLUMES      L**3       RATES FOR THIS TIME STEP      L**3/T
     ------------------                 ------------------------

           IN:                                      IN:
           ---                                      ---
             STORAGE =       17102.6309               STORAGE =         244.7858
       CONSTANT HEAD =           0.0000         CONSTANT HEAD =           0.0000
               WELLS =           0.0000                 WELLS =           0.0000
     HEAD DEP BOUNDS =       99667.9375       HEAD DEP BOUNDS =         648.6748

            TOTAL IN =      116770.5703              TOTAL IN =         893.4606

          OUT:                                     OUT:
          ----                                     ----
             STORAGE =           0.5783               STORAGE =           0.0000
       CONSTANT HEAD =           0.0000         CONSTANT HEAD =           0.0000
               WELLS =       18300.0000                 WELLS =         300.0000
     HEAD DEP BOUNDS =       98467.8594       HEAD DEP BOUNDS =         593.4648

           TOTAL OUT =      116768.4375             TOTAL OUT =         893.4648

            IN - OUT =           2.1328              IN - OUT =      -4.2725E-03

 PERCENT DISCREPANCY =           0.00     PERCENT DISCREPANCY =           0.00






          TIME SUMMARY AT END OF TIME STEP  61 IN STRESS PERIOD    3
                    SECONDS     MINUTES      HOURS       DAYS        YEARS
                    -----------------------------------------------------------
   TIME STEP LENGTH  86400.      1440.0      24.000      1.0000     2.73785E-03
 STRESS PERIOD TIME 5.27040E+06  87840.      1464.0      61.000     0.16701    
         TOTAL TIME 1.39968E+07 2.33280E+05  3888.0      162.00     0.44353    
1
 
 SOLVING FOR HEAD 

 OUTPUT CONTROL FOR STRESS PERIOD    3   TIME STEP  62
    SAVE HEAD FOR ALL LAYERS
    SAVE DRAWDOWN FOR ALL LAYERS
    SAVE BUDGET
    PRINT HEAD FOR ALL LAYERS
    PRINT BUDGET
 UBDSV1 SAVING "         STORAGE" ON UNIT  53 AT TIME STEP 62, STRESS PERIOD   3
 UBDSV2 SAVING "   CONSTANT HEAD" ON UNIT  53 AT TIME STEP 62, STRESS PERIOD   3
 UBDSV1 SAVING "FLOW RIGHT FACE " ON UNIT  53 AT TIME STEP 62, STRESS PERIOD   3
 UBDSV1 SAVING "FLOW FRONT FACE " ON UNIT  53 AT TIME STEP 62, STRESS PERIOD   3
1
              HEAD IN LAYER   1 AT END OF TIME STEP  62 IN STRESS PERIOD    3
  ---------------------------------------------------------------------------

            1           2           3           4           5           6           7           8           9          10
 ........................................................................................................................
   1    9.990       8.936       7.862       6.769       5.672       4.581       3.483       2.359       1.202      1.2042E-02
   2    9.989       8.920       7.823       6.704       5.587       4.514       3.441       2.338       1.194      1.1960E-02
   3    9.989       8.887       7.742       6.549       5.364       4.354       3.354       2.297       1.178      1.1805E-02
   4    9.989       8.845       7.625       6.276       4.843       4.070       3.227       2.245       1.160      1.1625E-02
   5    9.988       8.820       7.533       5.944       3.494       3.724       3.126       2.214       1.151      1.1530E-02
   6    9.989       8.846       7.626       6.277       4.844       4.071       3.227       2.246       1.161      1.1627E-02
   7    9.989       8.888       7.744       6.552       5.368       4.357       3.356       2.298       1.179      1.1811E-02
   8    9.989       8.923       7.829       6.712       5.597       4.522       3.448       2.342       1.195      1.1976E-02
   9    9.990       8.943       7.877       6.792       5.698       4.604       3.499       2.368       1.206      1.2081E-02
  10    9.990       8.953       7.897       6.823       5.736       4.636       3.520       2.379       1.211      1.2129E-02

 HEAD WILL BE SAVED ON UNIT   51 AT END OF TIME STEP  62, STRESS PERIOD    3

 DRAWDOWN WILL BE SAVED ON UNIT   52 AT END OF TIME STEP  62, STRESS PERIOD    3
1
  VOLUMETRIC BUDGET FOR ENTIRE MODEL AT END OF TIME STEP 62 IN STRESS PERIOD   3
  ------------------------------------------------------------------------------

     CUMULATIVE VOLUMES      L**3       RATES FOR THIS TIME STEP      L**3/T
     ------------------                 ------------------------

           IN:                                      IN:
           ---                                      ---
             STORAGE =       17345.9902               STORAGE =         243.3590
       CONSTANT HEAD =           0.0000         CONSTANT HEAD =           0.0000
               WELLS =           0.0000                 WELLS =           0.0000
     HEAD DEP BOUNDS =      100317.5078       HEAD DEP BOUNDS =         649.5674

            TOTAL IN =      117663.5000              TOTAL IN =         892.9265

          OUT:                                     OUT:
          ----                                     ----
             STORAGE =           0.5783               STORAGE =           0.0000
       CONSTANT HEAD =           0.0000         CONSTANT HEAD =           0.0000
               WELLS =       18600.0000                 WELLS =         300.0000
     HEAD DEP BOUNDS =       99060.7812       HEAD DEP BOUNDS =         592.9213

           TOTAL OUT =      117661.3594             TOTAL OUT =         892.9213

            IN - OUT =           2.1406              IN - OUT =       5.1880E-03

 PERCENT DISCREPANCY =           0.00     PERCENT DISCREPANCY =           0.00






          TIME SUMMARY AT END OF TIME STEP  62 IN STRESS PERIOD    3
                    SECONDS     MINUTES      HOURS       DAYS        YEARS
                    -----------------------------------------------------------
   TIME STEP LENGTH  86400.      1440.0      24.000      1.0000     2.73785E-03
 STRESS PERIOD TIME 5.35680E+06  89280.      1488.0      62.000     0.16975    
         TOTAL TIME 1.40832E+07 2.34720E+05  3912.0      163.00     0.44627    
1
 
 SOLVING FOR HEAD 

 OUTPUT CONTROL FOR STRESS PERIOD    3   TIME STEP  63
    SAVE HEAD FOR ALL LAYERS
    SAVE DRAWDOWN FOR ALL LAYERS
    SAVE BUDGET
    PRINT HEAD FOR ALL LAYERS
    PRINT BUDGET
 UBDSV1 SAVING "         STORAGE" ON UNIT  53 AT TIME STEP 63, STRESS PERIOD   3
 UBDSV2 SAVING "   CONSTANT HEAD" ON UNIT  53 AT TIME STEP 63, STRESS PERIOD   3
 UBDSV1 SAVING "FLOW RIGHT FACE " ON UNIT  53 AT TIME STEP 63, STRESS PERIOD   3
 UBDSV1 SAVING "FLOW FRONT FACE " ON UNIT  53 AT TIME STEP 63, STRESS PERIOD   3
1
              HEAD IN LAYER   1 AT END OF TIME STEP  63 IN STRESS PERIOD    3
  ---------------------------------------------------------------------------

            1           2           3           4           5           6           7           8           9          10
 ........................................................................................................................
   1    9.990       8.935       7.860       6.767       5.669       4.578       3.480       2.357       1.201      1.2034E-02
   2    9.989       8.918       7.821       6.700       5.583       4.510       3.438       2.336       1.193      1.1950E-02
   3    9.989       8.885       7.739       6.545       5.359       4.349       3.350       2.294       1.177      1.1792E-02
   4    9.989       8.843       7.621       6.270       4.836       4.064       3.222       2.242       1.159      1.1609E-02
   5    9.988       8.817       7.528       5.938       3.487       3.718       3.121       2.210       1.149      1.1512E-02
   6    9.989       8.844       7.622       6.271       4.838       4.065       3.222       2.242       1.159      1.1611E-02
   7    9.989       8.886       7.741       6.548       5.362       4.352       3.352       2.296       1.178      1.1798E-02
   8    9.989       8.921       7.827       6.709       5.593       4.519       3.445       2.340       1.194      1.1967E-02
   9    9.990       8.943       7.875       6.790       5.695       4.602       3.497       2.367       1.205      1.2076E-02
  10    9.990       8.952       7.896       6.822       5.734       4.635       3.519       2.379       1.210      1.2125E-02

 HEAD WILL BE SAVED ON UNIT   51 AT END OF TIME STEP  63, STRESS PERIOD    3

 DRAWDOWN WILL BE SAVED ON UNIT   52 AT END OF TIME STEP  63, STRESS PERIOD    3
1
  VOLUMETRIC BUDGET FOR ENTIRE MODEL AT END OF TIME STEP 63 IN STRESS PERIOD   3
  ------------------------------------------------------------------------------

     CUMULATIVE VOLUMES      L**3       RATES FOR THIS TIME STEP      L**3/T
     ------------------                 ------------------------

           IN:                                      IN:
           ---                                      ---
             STORAGE =       17587.9160               STORAGE =         241.9264
       CONSTANT HEAD =           0.0000         CONSTANT HEAD =           0.0000
               WELLS =           0.0000                 WELLS =           0.0000
     HEAD DEP BOUNDS =      100967.9609       HEAD DEP BOUNDS =         650.4496

            TOTAL IN =      118555.8750              TOTAL IN =         892.3760

          OUT:                                     OUT:
          ----                                     ----
             STORAGE =           0.5783               STORAGE =           0.0000
       CONSTANT HEAD =           0.0000         CONSTANT HEAD =           0.0000
               WELLS =       18900.0000                 WELLS =         300.0000
     HEAD DEP BOUNDS =       99653.1562       HEAD DEP BOUNDS =         592.3738

           TOTAL OUT =      118553.7344             TOTAL OUT =         892.3738

            IN - OUT =           2.1406              IN - OUT =       2.1362E-03

 PERCENT DISCREPANCY =           0.00     PERCENT DISCREPANCY =           0.00






          TIME SUMMARY AT END OF TIME STEP  63 IN STRESS PERIOD    3
                    SECONDS     MINUTES      HOURS       DAYS        YEARS
                    -----------------------------------------------------------
   TIME STEP LENGTH  86400.      1440.0      24.000      1.0000     2.73785E-03
 STRESS PERIOD TIME 5.44320E+06  90720.      1512.0      63.000     0.17248    
         TOTAL TIME 1.41696E+07 2.36160E+05  3936.0      164.00     0.44901    
1
 
 SOLVING FOR HEAD 

 OUTPUT CONTROL FOR STRESS PERIOD    3   TIME STEP  64
    SAVE HEAD FOR ALL LAYERS
    SAVE DRAWDOWN FOR ALL LAYERS
    SAVE BUDGET
    PRINT HEAD FOR ALL LAYERS
    PRINT BUDGET
 UBDSV1 SAVING "         STORAGE" ON UNIT  53 AT TIME STEP 64, STRESS PERIOD   3
 UBDSV2 SAVING "   CONSTANT HEAD" ON UNIT  53 AT TIME STEP 64, STRESS PERIOD   3
 UBDSV1 SAVING "FLOW RIGHT FACE " ON UNIT  53 AT TIME STEP 64, STRESS PERIOD   3
 UBDSV1 SAVING "FLOW FRONT FACE " ON UNIT  53 AT TIME STEP 64, STRESS PERIOD   3
1
              HEAD IN LAYER   1 AT END OF TIME STEP  64 IN STRESS PERIOD    3
  ---------------------------------------------------------------------------

            1           2           3           4           5           6           7           8           9          10
 ........................................................................................................................
   1    9.990       8.934       7.857       6.764       5.666       4.575       3.478       2.356       1.200      1.2026E-02
   2    9.989       8.917       7.818       6.697       5.579       4.506       3.435       2.334       1.192      1.1940E-02
   3    9.989       8.884       7.735       6.540       5.353       4.344       3.346       2.292       1.176      1.1779E-02
   4    9.989       8.841       7.617       6.264       4.830       4.058       3.217       2.239       1.157      1.1593E-02
   5    9.988       8.815       7.524       5.931       3.480       3.711       3.116       2.207       1.147      1.1495E-02
   6    9.989       8.841       7.617       6.265       4.831       4.059       3.217       2.239       1.157      1.1595E-02
   7    9.989       8.885       7.738       6.543       5.357       4.347       3.348       2.293       1.176      1.1786E-02
   8    9.989       8.920       7.825       6.706       5.590       4.515       3.442       2.338       1.194      1.1958E-02
   9    9.990       8.942       7.874       6.788       5.693       4.600       3.495       2.366       1.205      1.2070E-02
  10    9.990       8.952       7.895       6.820       5.733       4.633       3.517       2.378       1.210      1.2122E-02

 HEAD WILL BE SAVED ON UNIT   51 AT END OF TIME STEP  64, STRESS PERIOD    3

 DRAWDOWN WILL BE SAVED ON UNIT   52 AT END OF TIME STEP  64, STRESS PERIOD    3
1
  VOLUMETRIC BUDGET FOR ENTIRE MODEL AT END OF TIME STEP 64 IN STRESS PERIOD   3
  ------------------------------------------------------------------------------

     CUMULATIVE VOLUMES      L**3       RATES FOR THIS TIME STEP      L**3/T
     ------------------                 ------------------------

           IN:                                      IN:
           ---                                      ---
             STORAGE =       17828.4141               STORAGE =         240.4989
       CONSTANT HEAD =           0.0000         CONSTANT HEAD =           0.0000
               WELLS =           0.0000                 WELLS =           0.0000
     HEAD DEP BOUNDS =      101619.2812       HEAD DEP BOUNDS =         651.3213

            TOTAL IN =      119447.6953              TOTAL IN =         891.8201

          OUT:                                     OUT:
          ----                                     ----
             STORAGE =           0.5783               STORAGE =           0.0000
       CONSTANT HEAD =           0.0000         CONSTANT HEAD =           0.0000
               WELLS =       19200.0000                 WELLS =         300.0000
     HEAD DEP BOUNDS =      100244.9766       HEAD DEP BOUNDS =         591.8239

           TOTAL OUT =      119445.5547             TOTAL OUT =         891.8239

            IN - OUT =           2.1406              IN - OUT =      -3.7842E-03

 PERCENT DISCREPANCY =           0.00     PERCENT DISCREPANCY =           0.00






          TIME SUMMARY AT END OF TIME STEP  64 IN STRESS PERIOD    3
                    SECONDS     MINUTES      HOURS       DAYS        YEARS
                    -----------------------------------------------------------
   TIME STEP LENGTH  86400.      1440.0      24.000      1.0000     2.73785E-03
 STRESS PERIOD TIME 5.52960E+06  92160.      1536.0      64.000     0.17522    
         TOTAL TIME 1.42560E+07 2.37600E+05  3960.0      165.00     0.45175    
1
 
 SOLVING FOR HEAD 

 OUTPUT CONTROL FOR STRESS PERIOD    3   TIME STEP  65
    SAVE HEAD FOR ALL LAYERS
    SAVE DRAWDOWN FOR ALL LAYERS
    SAVE BUDGET
    PRINT HEAD FOR ALL LAYERS
    PRINT BUDGET
 UBDSV1 SAVING "         STORAGE" ON UNIT  53 AT TIME STEP 65, STRESS PERIOD   3
 UBDSV2 SAVING "   CONSTANT HEAD" ON UNIT  53 AT TIME STEP 65, STRESS PERIOD   3
 UBDSV1 SAVING "FLOW RIGHT FACE " ON UNIT  53 AT TIME STEP 65, STRESS PERIOD   3
 UBDSV1 SAVING "FLOW FRONT FACE " ON UNIT  53 AT TIME STEP 65, STRESS PERIOD   3
1
              HEAD IN LAYER   1 AT END OF TIME STEP  65 IN STRESS PERIOD    3
  ---------------------------------------------------------------------------

            1           2           3           4           5           6           7           8           9          10
 ........................................................................................................................
   1    9.990       8.933       7.855       6.761       5.662       4.572       3.476       2.354       1.200      1.2019E-02
   2    9.989       8.916       7.816       6.693       5.575       4.502       3.432       2.332       1.191      1.1931E-02
   3    9.989       8.882       7.732       6.535       5.348       4.339       3.342       2.289       1.174      1.1766E-02
   4    9.989       8.839       7.612       6.259       4.823       4.051       3.212       2.236       1.156      1.1577E-02
   5    9.988       8.813       7.519       5.925       3.473       3.704       3.110       2.203       1.146      1.1478E-02
   6    9.989       8.839       7.613       6.260       4.824       4.052       3.213       2.236       1.156      1.1579E-02
   7    9.989       8.883       7.735       6.539       5.352       4.342       3.344       2.291       1.175      1.1773E-02
   8    9.989       8.919       7.823       6.703       5.586       4.512       3.440       2.336       1.193      1.1950E-02
   9    9.990       8.941       7.872       6.786       5.691       4.598       3.493       2.364       1.204      1.2065E-02
  10    9.990       8.951       7.894       6.819       5.731       4.632       3.516       2.377       1.209      1.2118E-02

 HEAD WILL BE SAVED ON UNIT   51 AT END OF TIME STEP  65, STRESS PERIOD    3

 DRAWDOWN WILL BE SAVED ON UNIT   52 AT END OF TIME STEP  65, STRESS PERIOD    3
1
  VOLUMETRIC BUDGET FOR ENTIRE MODEL AT END OF TIME STEP 65 IN STRESS PERIOD   3
  ------------------------------------------------------------------------------

     CUMULATIVE VOLUMES      L**3       RATES FOR THIS TIME STEP      L**3/T
     ------------------                 ------------------------

           IN:                                      IN:
           ---                                      ---
             STORAGE =       18067.4883               STORAGE =         239.0747
       CONSTANT HEAD =           0.0000         CONSTANT HEAD =           0.0000
               WELLS =           0.0000                 WELLS =           0.0000
     HEAD DEP BOUNDS =      102271.4766       HEAD DEP BOUNDS =         652.1954

            TOTAL IN =      120338.9688              TOTAL IN =         891.2701

          OUT:                                     OUT:
          ----                                     ----
             STORAGE =           0.5783               STORAGE =           0.0000
       CONSTANT HEAD =           0.0000         CONSTANT HEAD =           0.0000
               WELLS =       19500.0000                 WELLS =         300.0000
     HEAD DEP BOUNDS =      100836.2500       HEAD DEP BOUNDS =         591.2700

           TOTAL OUT =      120336.8281             TOTAL OUT =         891.2700

            IN - OUT =           2.1406              IN - OUT =       1.8311E-04

 PERCENT DISCREPANCY =           0.00     PERCENT DISCREPANCY =           0.00






          TIME SUMMARY AT END OF TIME STEP  65 IN STRESS PERIOD    3
                    SECONDS     MINUTES      HOURS       DAYS        YEARS
                    -----------------------------------------------------------
   TIME STEP LENGTH  86400.      1440.0      24.000      1.0000     2.73785E-03
 STRESS PERIOD TIME 5.61600E+06  93600.      1560.0      65.000     0.17796    
         TOTAL TIME 1.43424E+07 2.39040E+05  3984.0      166.00     0.45448    
1
 
 SOLVING FOR HEAD 

 OUTPUT CONTROL FOR STRESS PERIOD    3   TIME STEP  66
    SAVE HEAD FOR ALL LAYERS
    SAVE DRAWDOWN FOR ALL LAYERS
    SAVE BUDGET
    PRINT HEAD FOR ALL LAYERS
    PRINT BUDGET
 UBDSV1 SAVING "         STORAGE" ON UNIT  53 AT TIME STEP 66, STRESS PERIOD   3
 UBDSV2 SAVING "   CONSTANT HEAD" ON UNIT  53 AT TIME STEP 66, STRESS PERIOD   3
 UBDSV1 SAVING "FLOW RIGHT FACE " ON UNIT  53 AT TIME STEP 66, STRESS PERIOD   3
 UBDSV1 SAVING "FLOW FRONT FACE " ON UNIT  53 AT TIME STEP 66, STRESS PERIOD   3
1
              HEAD IN LAYER   1 AT END OF TIME STEP  66 IN STRESS PERIOD    3
  ---------------------------------------------------------------------------

            1           2           3           4           5           6           7           8           9          10
 ........................................................................................................................
   1    9.990       8.932       7.853       6.758       5.659       4.569       3.473       2.352       1.199      1.2011E-02
   2    9.989       8.914       7.813       6.689       5.571       4.498       3.429       2.330       1.190      1.1921E-02
   3    9.989       8.880       7.729       6.531       5.343       4.334       3.338       2.287       1.173      1.1753E-02
   4    9.989       8.837       7.608       6.253       4.817       4.045       3.207       2.232       1.154      1.1561E-02
   5    9.988       8.810       7.515       5.919       3.465       3.698       3.105       2.200       1.144      1.1461E-02
   6    9.989       8.837       7.609       6.254       4.818       4.046       3.208       2.233       1.154      1.1563E-02
   7    9.989       8.881       7.731       6.534       5.347       4.337       3.340       2.288       1.174      1.1761E-02
   8    9.989       8.918       7.820       6.700       5.582       4.509       3.437       2.335       1.192      1.1941E-02
   9    9.990       8.940       7.871       6.784       5.688       4.595       3.492       2.363       1.204      1.2059E-02
  10    9.990       8.950       7.893       6.817       5.729       4.630       3.515       2.376       1.209      1.2114E-02

 HEAD WILL BE SAVED ON UNIT   51 AT END OF TIME STEP  66, STRESS PERIOD    3

 DRAWDOWN WILL BE SAVED ON UNIT   52 AT END OF TIME STEP  66, STRESS PERIOD    3
1
  VOLUMETRIC BUDGET FOR ENTIRE MODEL AT END OF TIME STEP 66 IN STRESS PERIOD   3
  ------------------------------------------------------------------------------

     CUMULATIVE VOLUMES      L**3       RATES FOR THIS TIME STEP      L**3/T
     ------------------                 ------------------------

           IN:                                      IN:
           ---                                      ---
             STORAGE =       18305.1387               STORAGE =         237.6509
       CONSTANT HEAD =           0.0000         CONSTANT HEAD =           0.0000
               WELLS =           0.0000                 WELLS =           0.0000
     HEAD DEP BOUNDS =      102924.5391       HEAD DEP BOUNDS =         653.0655

            TOTAL IN =      121229.6797              TOTAL IN =         890.7164

          OUT:                                     OUT:
          ----                                     ----
             STORAGE =           0.5783               STORAGE =           0.0000
       CONSTANT HEAD =           0.0000         CONSTANT HEAD =           0.0000
               WELLS =       19800.0000                 WELLS =         300.0000
     HEAD DEP BOUNDS =      101426.9609       HEAD DEP BOUNDS =         590.7138

           TOTAL OUT =      121227.5391             TOTAL OUT =         890.7138

            IN - OUT =           2.1406              IN - OUT =       2.6245E-03

 PERCENT DISCREPANCY =           0.00     PERCENT DISCREPANCY =           0.00






          TIME SUMMARY AT END OF TIME STEP  66 IN STRESS PERIOD    3
                    SECONDS     MINUTES      HOURS       DAYS        YEARS
                    -----------------------------------------------------------
   TIME STEP LENGTH  86400.      1440.0      24.000      1.0000     2.73785E-03
 STRESS PERIOD TIME 5.70240E+06  95040.      1584.0      66.000     0.18070    
         TOTAL TIME 1.44288E+07 2.40480E+05  4008.0      167.00     0.45722    
1
 
 SOLVING FOR HEAD 

 OUTPUT CONTROL FOR STRESS PERIOD    3   TIME STEP  67
    SAVE HEAD FOR ALL LAYERS
    SAVE DRAWDOWN FOR ALL LAYERS
    SAVE BUDGET
    PRINT HEAD FOR ALL LAYERS
    PRINT BUDGET
 UBDSV1 SAVING "         STORAGE" ON UNIT  53 AT TIME STEP 67, STRESS PERIOD   3
 UBDSV2 SAVING "   CONSTANT HEAD" ON UNIT  53 AT TIME STEP 67, STRESS PERIOD   3
 UBDSV1 SAVING "FLOW RIGHT FACE " ON UNIT  53 AT TIME STEP 67, STRESS PERIOD   3
 UBDSV1 SAVING "FLOW FRONT FACE " ON UNIT  53 AT TIME STEP 67, STRESS PERIOD   3
1
              HEAD IN LAYER   1 AT END OF TIME STEP  67 IN STRESS PERIOD    3
  ---------------------------------------------------------------------------

            1           2           3           4           5           6           7           8           9          10
 ........................................................................................................................
   1    9.990       8.931       7.851       6.755       5.656       4.566       3.471       2.351       1.198      1.2003E-02
   2    9.989       8.913       7.810       6.686       5.567       4.495       3.426       2.328       1.189      1.1911E-02
   3    9.989       8.878       7.725       6.526       5.338       4.329       3.334       2.284       1.172      1.1740E-02
   4    9.989       8.835       7.604       6.247       4.810       4.039       3.202       2.229       1.152      1.1545E-02
   5    9.988       8.808       7.511       5.913       3.459       3.691       3.100       2.196       1.142      1.1444E-02
   6    9.989       8.835       7.605       6.249       4.812       4.041       3.203       2.230       1.153      1.1547E-02
   7    9.989       8.880       7.728       6.530       5.342       4.333       3.337       2.286       1.173      1.1748E-02
   8    9.989       8.917       7.818       6.696       5.579       4.505       3.434       2.333       1.191      1.1932E-02
   9    9.990       8.940       7.869       6.781       5.686       4.593       3.490       2.362       1.203      1.2053E-02
  10    9.990       8.950       7.891       6.816       5.728       4.629       3.514       2.375       1.209      1.2109E-02

 HEAD WILL BE SAVED ON UNIT   51 AT END OF TIME STEP  67, STRESS PERIOD    3

 DRAWDOWN WILL BE SAVED ON UNIT   52 AT END OF TIME STEP  67, STRESS PERIOD    3
1
  VOLUMETRIC BUDGET FOR ENTIRE MODEL AT END OF TIME STEP 67 IN STRESS PERIOD   3
  ------------------------------------------------------------------------------

     CUMULATIVE VOLUMES      L**3       RATES FOR THIS TIME STEP      L**3/T
     ------------------                 ------------------------

           IN:                                      IN:
           ---                                      ---
             STORAGE =       18541.3789               STORAGE =         236.2393
       CONSTANT HEAD =           0.0000         CONSTANT HEAD =           0.0000
               WELLS =           0.0000                 WELLS =           0.0000
     HEAD DEP BOUNDS =      103578.4609       HEAD DEP BOUNDS =         653.9246

            TOTAL IN =      122119.8438              TOTAL IN =         890.1638

          OUT:                                     OUT:
          ----                                     ----
             STORAGE =           0.5783               STORAGE =           0.0000
       CONSTANT HEAD =           0.0000         CONSTANT HEAD =           0.0000
               WELLS =       20100.0000                 WELLS =         300.0000
     HEAD DEP BOUNDS =      102017.1172       HEAD DEP BOUNDS =         590.1580

           TOTAL OUT =      122117.6953             TOTAL OUT =         890.1580

            IN - OUT =           2.1484              IN - OUT =       5.8594E-03

 PERCENT DISCREPANCY =           0.00     PERCENT DISCREPANCY =           0.00






          TIME SUMMARY AT END OF TIME STEP  67 IN STRESS PERIOD    3
                    SECONDS     MINUTES      HOURS       DAYS        YEARS
                    -----------------------------------------------------------
   TIME STEP LENGTH  86400.      1440.0      24.000      1.0000     2.73785E-03
 STRESS PERIOD TIME 5.78880E+06  96480.      1608.0      67.000     0.18344    
         TOTAL TIME 1.45152E+07 2.41920E+05  4032.0      168.00     0.45996    
1
 
 SOLVING FOR HEAD 

 OUTPUT CONTROL FOR STRESS PERIOD    3   TIME STEP  68
    SAVE HEAD FOR ALL LAYERS
    SAVE DRAWDOWN FOR ALL LAYERS
    SAVE BUDGET
    PRINT HEAD FOR ALL LAYERS
    PRINT BUDGET
 UBDSV1 SAVING "         STORAGE" ON UNIT  53 AT TIME STEP 68, STRESS PERIOD   3
 UBDSV2 SAVING "   CONSTANT HEAD" ON UNIT  53 AT TIME STEP 68, STRESS PERIOD   3
 UBDSV1 SAVING "FLOW RIGHT FACE " ON UNIT  53 AT TIME STEP 68, STRESS PERIOD   3
 UBDSV1 SAVING "FLOW FRONT FACE " ON UNIT  53 AT TIME STEP 68, STRESS PERIOD   3
1
              HEAD IN LAYER   1 AT END OF TIME STEP  68 IN STRESS PERIOD    3
  ---------------------------------------------------------------------------

            1           2           3           4           5           6           7           8           9          10
 ........................................................................................................................
   1    9.989       8.930       7.849       6.752       5.653       4.563       3.468       2.349       1.197      1.1995E-02
   2    9.989       8.912       7.808       6.682       5.563       4.491       3.423       2.326       1.188      1.1900E-02
   3    9.989       8.877       7.722       6.521       5.333       4.324       3.330       2.281       1.171      1.1727E-02
   4    9.989       8.833       7.600       6.242       4.804       4.033       3.197       2.226       1.151      1.1529E-02
   5    9.988       8.806       7.506       5.907       3.452       3.685       3.095       2.193       1.141      1.1427E-02
   6    9.989       8.833       7.601       6.243       4.806       4.035       3.198       2.227       1.151      1.1531E-02
   7    9.989       8.878       7.725       6.525       5.337       4.328       3.333       2.283       1.171      1.1735E-02
   8    9.989       8.916       7.816       6.693       5.575       4.502       3.432       2.331       1.190      1.1923E-02
   9    9.990       8.939       7.868       6.779       5.684       4.591       3.488       2.361       1.202      1.2047E-02
  10    9.990       8.949       7.890       6.814       5.726       4.627       3.512       2.374       1.208      1.2105E-02

 HEAD WILL BE SAVED ON UNIT   51 AT END OF TIME STEP  68, STRESS PERIOD    3

 DRAWDOWN WILL BE SAVED ON UNIT   52 AT END OF TIME STEP  68, STRESS PERIOD    3
1
  VOLUMETRIC BUDGET FOR ENTIRE MODEL AT END OF TIME STEP 68 IN STRESS PERIOD   3
  ------------------------------------------------------------------------------

     CUMULATIVE VOLUMES      L**3       RATES FOR THIS TIME STEP      L**3/T
     ------------------                 ------------------------

           IN:                                      IN:
           ---                                      ---
             STORAGE =       18776.1895               STORAGE =         234.8112
       CONSTANT HEAD =           0.0000         CONSTANT HEAD =           0.0000
               WELLS =           0.0000                 WELLS =           0.0000
     HEAD DEP BOUNDS =      104233.2422       HEAD DEP BOUNDS =         654.7793

            TOTAL IN =      123009.4297              TOTAL IN =         889.5905

          OUT:                                     OUT:
          ----                                     ----
             STORAGE =           0.5783               STORAGE =           0.0000
       CONSTANT HEAD =           0.0000         CONSTANT HEAD =           0.0000
               WELLS =       20400.0000                 WELLS =         300.0000
     HEAD DEP BOUNDS =      102606.7109       HEAD DEP BOUNDS =         589.5962

           TOTAL OUT =      123007.2891             TOTAL OUT =         889.5962

            IN - OUT =           2.1406              IN - OUT =      -5.6763E-03

 PERCENT DISCREPANCY =           0.00     PERCENT DISCREPANCY =           0.00






          TIME SUMMARY AT END OF TIME STEP  68 IN STRESS PERIOD    3
                    SECONDS     MINUTES      HOURS       DAYS        YEARS
                    -----------------------------------------------------------
   TIME STEP LENGTH  86400.      1440.0      24.000      1.0000     2.73785E-03
 STRESS PERIOD TIME 5.87520E+06  97920.      1632.0      68.000     0.18617    
         TOTAL TIME 1.46016E+07 2.43360E+05  4056.0      169.00     0.46270    
1
 
 SOLVING FOR HEAD 

 OUTPUT CONTROL FOR STRESS PERIOD    3   TIME STEP  69
    SAVE HEAD FOR ALL LAYERS
    SAVE DRAWDOWN FOR ALL LAYERS
    SAVE BUDGET
    PRINT HEAD FOR ALL LAYERS
    PRINT BUDGET
 UBDSV1 SAVING "         STORAGE" ON UNIT  53 AT TIME STEP 69, STRESS PERIOD   3
 UBDSV2 SAVING "   CONSTANT HEAD" ON UNIT  53 AT TIME STEP 69, STRESS PERIOD   3
 UBDSV1 SAVING "FLOW RIGHT FACE " ON UNIT  53 AT TIME STEP 69, STRESS PERIOD   3
 UBDSV1 SAVING "FLOW FRONT FACE " ON UNIT  53 AT TIME STEP 69, STRESS PERIOD   3
1
              HEAD IN LAYER   1 AT END OF TIME STEP  69 IN STRESS PERIOD    3
  ---------------------------------------------------------------------------

            1           2           3           4           5           6           7           8           9          10
 ........................................................................................................................
   1    9.989       8.928       7.847       6.749       5.650       4.560       3.466       2.348       1.196      1.1986E-02
   2    9.989       8.910       7.805       6.679       5.559       4.487       3.420       2.324       1.187      1.1890E-02
   3    9.989       8.875       7.719       6.517       5.327       4.319       3.326       2.279       1.169      1.1713E-02
   4    9.989       8.831       7.596       6.236       4.798       4.028       3.193       2.223       1.149      1.1513E-02
   5    9.988       8.804       7.502       5.901       3.445       3.679       3.090       2.190       1.139      1.1410E-02
   6    9.989       8.831       7.597       6.238       4.800       4.029       3.194       2.223       1.150      1.1516E-02
   7    9.989       8.876       7.722       6.521       5.332       4.323       3.329       2.281       1.170      1.1723E-02
   8    9.989       8.914       7.813       6.690       5.572       4.499       3.429       2.329       1.189      1.1914E-02
   9    9.990       8.938       7.866       6.777       5.681       4.589       3.486       2.360       1.202      1.2041E-02
  10    9.990       8.949       7.889       6.813       5.724       4.625       3.511       2.374       1.208      1.2101E-02

 HEAD WILL BE SAVED ON UNIT   51 AT END OF TIME STEP  69, STRESS PERIOD    3

 DRAWDOWN WILL BE SAVED ON UNIT   52 AT END OF TIME STEP  69, STRESS PERIOD    3
1
  VOLUMETRIC BUDGET FOR ENTIRE MODEL AT END OF TIME STEP 69 IN STRESS PERIOD   3
  ------------------------------------------------------------------------------

     CUMULATIVE VOLUMES      L**3       RATES FOR THIS TIME STEP      L**3/T
     ------------------                 ------------------------

           IN:                                      IN:
           ---                                      ---
             STORAGE =       19009.5898               STORAGE =         233.3999
       CONSTANT HEAD =           0.0000         CONSTANT HEAD =           0.0000
               WELLS =           0.0000                 WELLS =           0.0000
     HEAD DEP BOUNDS =      104888.8750       HEAD DEP BOUNDS =         655.6364

            TOTAL IN =      123898.4688              TOTAL IN =         889.0363

          OUT:                                     OUT:
          ----                                     ----
             STORAGE =           0.5783               STORAGE =           0.0000
       CONSTANT HEAD =           0.0000         CONSTANT HEAD =           0.0000
               WELLS =       20700.0000                 WELLS =         300.0000
     HEAD DEP BOUNDS =      103195.7500       HEAD DEP BOUNDS =         589.0361

           TOTAL OUT =      123896.3281             TOTAL OUT =         889.0361

            IN - OUT =           2.1406              IN - OUT =       1.2207E-04

 PERCENT DISCREPANCY =           0.00     PERCENT DISCREPANCY =           0.00






          TIME SUMMARY AT END OF TIME STEP  69 IN STRESS PERIOD    3
                    SECONDS     MINUTES      HOURS       DAYS        YEARS
                    -----------------------------------------------------------
   TIME STEP LENGTH  86400.      1440.0      24.000      1.0000     2.73785E-03
 STRESS PERIOD TIME 5.96160E+06  99360.      1656.0      69.000     0.18891    
         TOTAL TIME 1.46880E+07 2.44800E+05  4080.0      170.00     0.46543    
1
 
 SOLVING FOR HEAD 

 OUTPUT CONTROL FOR STRESS PERIOD    3   TIME STEP  70
    SAVE HEAD FOR ALL LAYERS
    SAVE DRAWDOWN FOR ALL LAYERS
    SAVE BUDGET
    PRINT HEAD FOR ALL LAYERS
    PRINT BUDGET
 UBDSV1 SAVING "         STORAGE" ON UNIT  53 AT TIME STEP 70, STRESS PERIOD   3
 UBDSV2 SAVING "   CONSTANT HEAD" ON UNIT  53 AT TIME STEP 70, STRESS PERIOD   3
 UBDSV1 SAVING "FLOW RIGHT FACE " ON UNIT  53 AT TIME STEP 70, STRESS PERIOD   3
 UBDSV1 SAVING "FLOW FRONT FACE " ON UNIT  53 AT TIME STEP 70, STRESS PERIOD   3
1
              HEAD IN LAYER   1 AT END OF TIME STEP  70 IN STRESS PERIOD    3
  ---------------------------------------------------------------------------

            1           2           3           4           5           6           7           8           9          10
 ........................................................................................................................
   1    9.989       8.927       7.845       6.746       5.646       4.557       3.463       2.346       1.196      1.1978E-02
   2    9.989       8.909       7.803       6.675       5.555       4.484       3.417       2.322       1.186      1.1880E-02
   3    9.989       8.873       7.715       6.512       5.322       4.314       3.322       2.276       1.168      1.1700E-02
   4    9.989       8.829       7.593       6.231       4.792       4.022       3.188       2.220       1.148      1.1497E-02
   5    9.988       8.802       7.498       5.896       3.438       3.672       3.085       2.186       1.137      1.1393E-02
   6    9.989       8.829       7.594       6.233       4.794       4.023       3.189       2.220       1.148      1.1500E-02
   7    9.989       8.875       7.719       6.517       5.327       4.319       3.325       2.278       1.169      1.1710E-02
   8    9.989       8.913       7.811       6.687       5.568       4.495       3.426       2.327       1.188      1.1905E-02
   9    9.990       8.937       7.865       6.775       5.679       4.586       3.485       2.359       1.201      1.2035E-02
  10    9.990       8.948       7.888       6.811       5.722       4.624       3.510       2.373       1.207      1.2096E-02

 HEAD WILL BE SAVED ON UNIT   51 AT END OF TIME STEP  70, STRESS PERIOD    3

 DRAWDOWN WILL BE SAVED ON UNIT   52 AT END OF TIME STEP  70, STRESS PERIOD    3
1
  VOLUMETRIC BUDGET FOR ENTIRE MODEL AT END OF TIME STEP 70 IN STRESS PERIOD   3
  ------------------------------------------------------------------------------

     CUMULATIVE VOLUMES      L**3       RATES FOR THIS TIME STEP      L**3/T
     ------------------                 ------------------------

           IN:                                      IN:
           ---                                      ---
             STORAGE =       19241.5820               STORAGE =         231.9912
       CONSTANT HEAD =           0.0000         CONSTANT HEAD =           0.0000
               WELLS =           0.0000                 WELLS =           0.0000
     HEAD DEP BOUNDS =      105545.3594       HEAD DEP BOUNDS =         656.4822

            TOTAL IN =      124786.9375              TOTAL IN =         888.4734

          OUT:                                     OUT:
          ----                                     ----
             STORAGE =           0.5783               STORAGE =           0.0000
       CONSTANT HEAD =           0.0000         CONSTANT HEAD =           0.0000
               WELLS =       21000.0000                 WELLS =         300.0000
     HEAD DEP BOUNDS =      103784.2188       HEAD DEP BOUNDS =         588.4704

           TOTAL OUT =      124784.7969             TOTAL OUT =         888.4704

            IN - OUT =           2.1406              IN - OUT =       3.0518E-03

 PERCENT DISCREPANCY =           0.00     PERCENT DISCREPANCY =           0.00






          TIME SUMMARY AT END OF TIME STEP  70 IN STRESS PERIOD    3
                    SECONDS     MINUTES      HOURS       DAYS        YEARS
                    -----------------------------------------------------------
   TIME STEP LENGTH  86400.      1440.0      24.000      1.0000     2.73785E-03
 STRESS PERIOD TIME 6.04800E+06 1.00800E+05  1680.0      70.000     0.19165    
         TOTAL TIME 1.47744E+07 2.46240E+05  4104.0      171.00     0.46817    
1
 
 SOLVING FOR HEAD 

 OUTPUT CONTROL FOR STRESS PERIOD    3   TIME STEP  71
    SAVE HEAD FOR ALL LAYERS
    SAVE DRAWDOWN FOR ALL LAYERS
    SAVE BUDGET
    PRINT HEAD FOR ALL LAYERS
    PRINT BUDGET
 UBDSV1 SAVING "         STORAGE" ON UNIT  53 AT TIME STEP 71, STRESS PERIOD   3
 UBDSV2 SAVING "   CONSTANT HEAD" ON UNIT  53 AT TIME STEP 71, STRESS PERIOD   3
 UBDSV1 SAVING "FLOW RIGHT FACE " ON UNIT  53 AT TIME STEP 71, STRESS PERIOD   3
 UBDSV1 SAVING "FLOW FRONT FACE " ON UNIT  53 AT TIME STEP 71, STRESS PERIOD   3
1
              HEAD IN LAYER   1 AT END OF TIME STEP  71 IN STRESS PERIOD    3
  ---------------------------------------------------------------------------

            1           2           3           4           5           6           7           8           9          10
 ........................................................................................................................
   1    9.989       8.926       7.843       6.743       5.643       4.554       3.461       2.344       1.195      1.1969E-02
   2    9.989       8.908       7.800       6.672       5.551       4.480       3.414       2.320       1.185      1.1870E-02
   3    9.989       8.872       7.712       6.508       5.317       4.310       3.318       2.273       1.167      1.1687E-02
   4    9.989       8.827       7.589       6.226       4.786       4.016       3.183       2.216       1.146      1.1481E-02
   5    9.988       8.800       7.494       5.890       3.432       3.666       3.080       2.183       1.136      1.1376E-02
   6    9.989       8.827       7.590       6.227       4.788       4.018       3.184       2.217       1.147      1.1485E-02
   7    9.989       8.873       7.716       6.513       5.323       4.314       3.322       2.276       1.168      1.1697E-02
   8    9.989       8.912       7.809       6.684       5.565       4.492       3.424       2.326       1.187      1.1896E-02
   9    9.990       8.936       7.863       6.773       5.677       4.584       3.483       2.357       1.201      1.2029E-02
  10    9.990       8.947       7.887       6.810       5.721       4.622       3.508       2.372       1.207      1.2092E-02

 HEAD WILL BE SAVED ON UNIT   51 AT END OF TIME STEP  71, STRESS PERIOD    3

 DRAWDOWN WILL BE SAVED ON UNIT   52 AT END OF TIME STEP  71, STRESS PERIOD    3
1
  VOLUMETRIC BUDGET FOR ENTIRE MODEL AT END OF TIME STEP 71 IN STRESS PERIOD   3
  ------------------------------------------------------------------------------

     CUMULATIVE VOLUMES      L**3       RATES FOR THIS TIME STEP      L**3/T
     ------------------                 ------------------------

           IN:                                      IN:
           ---                                      ---
             STORAGE =       19472.1602               STORAGE =         230.5775
       CONSTANT HEAD =           0.0000         CONSTANT HEAD =           0.0000
               WELLS =           0.0000                 WELLS =           0.0000
     HEAD DEP BOUNDS =      106202.6797       HEAD DEP BOUNDS =         657.3169

            TOTAL IN =      125674.8438              TOTAL IN =         887.8944

          OUT:                                     OUT:
          ----                                     ----
             STORAGE =           0.5783               STORAGE =           0.0000
       CONSTANT HEAD =           0.0000         CONSTANT HEAD =           0.0000
               WELLS =       21300.0000                 WELLS =         300.0000
     HEAD DEP BOUNDS =      104372.1250       HEAD DEP BOUNDS =         587.9034

           TOTAL OUT =      125672.7031             TOTAL OUT =         887.9034

            IN - OUT =           2.1406              IN - OUT =      -8.9722E-03

 PERCENT DISCREPANCY =           0.00     PERCENT DISCREPANCY =           0.00






          TIME SUMMARY AT END OF TIME STEP  71 IN STRESS PERIOD    3
                    SECONDS     MINUTES      HOURS       DAYS        YEARS
                    -----------------------------------------------------------
   TIME STEP LENGTH  86400.      1440.0      24.000      1.0000     2.73785E-03
 STRESS PERIOD TIME 6.13440E+06 1.02240E+05  1704.0      71.000     0.19439    
         TOTAL TIME 1.48608E+07 2.47680E+05  4128.0      172.00     0.47091    
1
 
 SOLVING FOR HEAD 

 OUTPUT CONTROL FOR STRESS PERIOD    3   TIME STEP  72
    SAVE HEAD FOR ALL LAYERS
    SAVE DRAWDOWN FOR ALL LAYERS
    SAVE BUDGET
    PRINT HEAD FOR ALL LAYERS
    PRINT BUDGET
 UBDSV1 SAVING "         STORAGE" ON UNIT  53 AT TIME STEP 72, STRESS PERIOD   3
 UBDSV2 SAVING "   CONSTANT HEAD" ON UNIT  53 AT TIME STEP 72, STRESS PERIOD   3
 UBDSV1 SAVING "FLOW RIGHT FACE " ON UNIT  53 AT TIME STEP 72, STRESS PERIOD   3
 UBDSV1 SAVING "FLOW FRONT FACE " ON UNIT  53 AT TIME STEP 72, STRESS PERIOD   3
1
              HEAD IN LAYER   1 AT END OF TIME STEP  72 IN STRESS PERIOD    3
  ---------------------------------------------------------------------------

            1           2           3           4           5           6           7           8           9          10
 ........................................................................................................................
   1    9.989       8.925       7.840       6.741       5.640       4.551       3.458       2.342       1.194      1.1961E-02
   2    9.989       8.906       7.798       6.668       5.547       4.476       3.411       2.318       1.184      1.1859E-02
   3    9.989       8.870       7.709       6.504       5.313       4.305       3.314       2.271       1.165      1.1674E-02
   4    9.988       8.825       7.585       6.221       4.780       4.010       3.179       2.213       1.145      1.1465E-02
   5    9.988       8.798       7.490       5.884       3.425       3.660       3.075       2.180       1.134      1.1359E-02
   6    9.988       8.825       7.586       6.222       4.782       4.012       3.180       2.214       1.145      1.1469E-02
   7    9.989       8.872       7.713       6.509       5.318       4.310       3.318       2.273       1.166      1.1685E-02
   8    9.989       8.911       7.807       6.681       5.562       4.489       3.421       2.324       1.187      1.1887E-02
   9    9.990       8.935       7.861       6.771       5.674       4.582       3.481       2.356       1.200      1.2022E-02
  10    9.990       8.947       7.886       6.808       5.719       4.620       3.507       2.371       1.206      1.2087E-02

 HEAD WILL BE SAVED ON UNIT   51 AT END OF TIME STEP  72, STRESS PERIOD    3

 DRAWDOWN WILL BE SAVED ON UNIT   52 AT END OF TIME STEP  72, STRESS PERIOD    3
1
  VOLUMETRIC BUDGET FOR ENTIRE MODEL AT END OF TIME STEP 72 IN STRESS PERIOD   3
  ------------------------------------------------------------------------------

     CUMULATIVE VOLUMES      L**3       RATES FOR THIS TIME STEP      L**3/T
     ------------------                 ------------------------

           IN:                                      IN:
           ---                                      ---
             STORAGE =       19701.3398               STORAGE =         229.1793
       CONSTANT HEAD =           0.0000         CONSTANT HEAD =           0.0000
               WELLS =           0.0000                 WELLS =           0.0000
     HEAD DEP BOUNDS =      106860.8438       HEAD DEP BOUNDS =         658.1602

            TOTAL IN =      126562.1875              TOTAL IN =         887.3394

          OUT:                                     OUT:
          ----                                     ----
             STORAGE =           0.5783               STORAGE =           0.0000
       CONSTANT HEAD =           0.0000         CONSTANT HEAD =           0.0000
               WELLS =       21600.0000                 WELLS =         300.0000
     HEAD DEP BOUNDS =      104959.4609       HEAD DEP BOUNDS =         587.3392

           TOTAL OUT =      126560.0391             TOTAL OUT =         887.3392

            IN - OUT =           2.1484              IN - OUT =       2.4414E-04

 PERCENT DISCREPANCY =           0.00     PERCENT DISCREPANCY =           0.00






          TIME SUMMARY AT END OF TIME STEP  72 IN STRESS PERIOD    3
                    SECONDS     MINUTES      HOURS       DAYS        YEARS
                    -----------------------------------------------------------
   TIME STEP LENGTH  86400.      1440.0      24.000      1.0000     2.73785E-03
 STRESS PERIOD TIME 6.22080E+06 1.03680E+05  1728.0      72.000     0.19713    
         TOTAL TIME 1.49472E+07 2.49120E+05  4152.0      173.00     0.47365    
1
 
 SOLVING FOR HEAD 

 OUTPUT CONTROL FOR STRESS PERIOD    3   TIME STEP  73
    SAVE HEAD FOR ALL LAYERS
    SAVE DRAWDOWN FOR ALL LAYERS
    SAVE BUDGET
    PRINT HEAD FOR ALL LAYERS
    PRINT BUDGET
 UBDSV1 SAVING "         STORAGE" ON UNIT  53 AT TIME STEP 73, STRESS PERIOD   3
 UBDSV2 SAVING "   CONSTANT HEAD" ON UNIT  53 AT TIME STEP 73, STRESS PERIOD   3
 UBDSV1 SAVING "FLOW RIGHT FACE " ON UNIT  53 AT TIME STEP 73, STRESS PERIOD   3
 UBDSV1 SAVING "FLOW FRONT FACE " ON UNIT  53 AT TIME STEP 73, STRESS PERIOD   3
1
              HEAD IN LAYER   1 AT END OF TIME STEP  73 IN STRESS PERIOD    3
  ---------------------------------------------------------------------------

            1           2           3           4           5           6           7           8           9          10
 ........................................................................................................................
   1    9.989       8.924       7.838       6.738       5.636       4.548       3.456       2.341       1.193      1.1952E-02
   2    9.989       8.905       7.795       6.665       5.543       4.472       3.408       2.316       1.183      1.1849E-02
   3    9.989       8.868       7.706       6.499       5.308       4.300       3.311       2.268       1.164      1.1660E-02
   4    9.988       8.823       7.581       6.215       4.774       4.005       3.174       2.210       1.143      1.1449E-02
   5    9.988       8.796       7.486       5.879       3.419       3.654       3.070       2.176       1.132      1.1343E-02
   6    9.988       8.823       7.582       6.217       4.776       4.007       3.176       2.211       1.143      1.1453E-02
   7    9.989       8.870       7.710       6.504       5.313       4.305       3.314       2.271       1.165      1.1672E-02
   8    9.989       8.910       7.804       6.678       5.558       4.486       3.418       2.322       1.186      1.1877E-02
   9    9.990       8.935       7.860       6.769       5.672       4.580       3.479       2.355       1.199      1.2016E-02
  10    9.990       8.946       7.884       6.806       5.717       4.619       3.506       2.370       1.206      1.2082E-02

 HEAD WILL BE SAVED ON UNIT   51 AT END OF TIME STEP  73, STRESS PERIOD    3

 DRAWDOWN WILL BE SAVED ON UNIT   52 AT END OF TIME STEP  73, STRESS PERIOD    3
1
  VOLUMETRIC BUDGET FOR ENTIRE MODEL AT END OF TIME STEP 73 IN STRESS PERIOD   3
  ------------------------------------------------------------------------------

     CUMULATIVE VOLUMES      L**3       RATES FOR THIS TIME STEP      L**3/T
     ------------------                 ------------------------

           IN:                                      IN:
           ---                                      ---
             STORAGE =       19929.1152               STORAGE =         227.7746
       CONSTANT HEAD =           0.0000         CONSTANT HEAD =           0.0000
               WELLS =           0.0000                 WELLS =           0.0000
     HEAD DEP BOUNDS =      107519.8281       HEAD DEP BOUNDS =         658.9855

            TOTAL IN =      127448.9453              TOTAL IN =         886.7601

          OUT:                                     OUT:
          ----                                     ----
             STORAGE =           0.5783               STORAGE =           0.0000
       CONSTANT HEAD =           0.0000         CONSTANT HEAD =           0.0000
               WELLS =       21900.0000                 WELLS =         300.0000
     HEAD DEP BOUNDS =      105546.2266       HEAD DEP BOUNDS =         586.7690

           TOTAL OUT =      127446.8047             TOTAL OUT =         886.7690

            IN - OUT =           2.1406              IN - OUT =      -8.9722E-03

 PERCENT DISCREPANCY =           0.00     PERCENT DISCREPANCY =           0.00






          TIME SUMMARY AT END OF TIME STEP  73 IN STRESS PERIOD    3
                    SECONDS     MINUTES      HOURS       DAYS        YEARS
                    -----------------------------------------------------------
   TIME STEP LENGTH  86400.      1440.0      24.000      1.0000     2.73785E-03
 STRESS PERIOD TIME 6.30720E+06 1.05120E+05  1752.0      73.000     0.19986    
         TOTAL TIME 1.50336E+07 2.50560E+05  4176.0      174.00     0.47639    
1
 
 SOLVING FOR HEAD 

 OUTPUT CONTROL FOR STRESS PERIOD    3   TIME STEP  74
    SAVE HEAD FOR ALL LAYERS
    SAVE DRAWDOWN FOR ALL LAYERS
    SAVE BUDGET
    PRINT HEAD FOR ALL LAYERS
    PRINT BUDGET
 UBDSV1 SAVING "         STORAGE" ON UNIT  53 AT TIME STEP 74, STRESS PERIOD   3
 UBDSV2 SAVING "   CONSTANT HEAD" ON UNIT  53 AT TIME STEP 74, STRESS PERIOD   3
 UBDSV1 SAVING "FLOW RIGHT FACE " ON UNIT  53 AT TIME STEP 74, STRESS PERIOD   3
 UBDSV1 SAVING "FLOW FRONT FACE " ON UNIT  53 AT TIME STEP 74, STRESS PERIOD   3
1
              HEAD IN LAYER   1 AT END OF TIME STEP  74 IN STRESS PERIOD    3
  ---------------------------------------------------------------------------

            1           2           3           4           5           6           7           8           9          10
 ........................................................................................................................
   1    9.989       8.923       7.836       6.735       5.633       4.545       3.453       2.339       1.192      1.1943E-02
   2    9.989       8.904       7.792       6.661       5.540       4.469       3.405       2.314       1.182      1.1838E-02
   3    9.989       8.867       7.703       6.495       5.303       4.296       3.307       2.266       1.163      1.1647E-02
   4    9.988       8.821       7.578       6.210       4.769       3.999       3.170       2.207       1.142      1.1434E-02
   5    9.988       8.793       7.482       5.874       3.413       3.649       3.066       2.173       1.131      1.1326E-02
   6    9.988       8.822       7.579       6.212       4.771       4.001       3.171       2.208       1.142      1.1438E-02
   7    9.989       8.869       7.707       6.500       5.309       4.301       3.311       2.268       1.164      1.1659E-02
   8    9.989       8.908       7.802       6.675       5.555       4.482       3.416       2.320       1.185      1.1868E-02
   9    9.990       8.934       7.858       6.767       5.670       4.577       3.477       2.354       1.199      1.2010E-02
  10    9.990       8.945       7.883       6.805       5.715       4.617       3.504       2.369       1.205      1.2077E-02

 HEAD WILL BE SAVED ON UNIT   51 AT END OF TIME STEP  74, STRESS PERIOD    3

 DRAWDOWN WILL BE SAVED ON UNIT   52 AT END OF TIME STEP  74, STRESS PERIOD    3
1
  VOLUMETRIC BUDGET FOR ENTIRE MODEL AT END OF TIME STEP 74 IN STRESS PERIOD   3
  ------------------------------------------------------------------------------

     CUMULATIVE VOLUMES      L**3       RATES FOR THIS TIME STEP      L**3/T
     ------------------                 ------------------------

           IN:                                      IN:
           ---                                      ---
             STORAGE =       20155.5000               STORAGE =         226.3849
       CONSTANT HEAD =           0.0000         CONSTANT HEAD =           0.0000
               WELLS =           0.0000                 WELLS =           0.0000
     HEAD DEP BOUNDS =      108179.6406       HEAD DEP BOUNDS =         659.8126

            TOTAL IN =      128335.1406              TOTAL IN =         886.1975

          OUT:                                     OUT:
          ----                                     ----
             STORAGE =           0.5783               STORAGE =           0.0000
       CONSTANT HEAD =           0.0000         CONSTANT HEAD =           0.0000
               WELLS =       22200.0000                 WELLS =         300.0000
     HEAD DEP BOUNDS =      106132.4219       HEAD DEP BOUNDS =         586.1989

           TOTAL OUT =      128333.0000             TOTAL OUT =         886.1989

            IN - OUT =           2.1406              IN - OUT =      -1.4038E-03

 PERCENT DISCREPANCY =           0.00     PERCENT DISCREPANCY =           0.00






          TIME SUMMARY AT END OF TIME STEP  74 IN STRESS PERIOD    3
                    SECONDS     MINUTES      HOURS       DAYS        YEARS
                    -----------------------------------------------------------
   TIME STEP LENGTH  86400.      1440.0      24.000      1.0000     2.73785E-03
 STRESS PERIOD TIME 6.39360E+06 1.06560E+05  1776.0      74.000     0.20260    
         TOTAL TIME 1.51200E+07 2.52000E+05  4200.0      175.00     0.47912    
1
 
 SOLVING FOR HEAD 

 OUTPUT CONTROL FOR STRESS PERIOD    3   TIME STEP  75
    SAVE HEAD FOR ALL LAYERS
    SAVE DRAWDOWN FOR ALL LAYERS
    SAVE BUDGET
    PRINT HEAD FOR ALL LAYERS
    PRINT BUDGET
 UBDSV1 SAVING "         STORAGE" ON UNIT  53 AT TIME STEP 75, STRESS PERIOD   3
 UBDSV2 SAVING "   CONSTANT HEAD" ON UNIT  53 AT TIME STEP 75, STRESS PERIOD   3
 UBDSV1 SAVING "FLOW RIGHT FACE " ON UNIT  53 AT TIME STEP 75, STRESS PERIOD   3
 UBDSV1 SAVING "FLOW FRONT FACE " ON UNIT  53 AT TIME STEP 75, STRESS PERIOD   3
1
              HEAD IN LAYER   1 AT END OF TIME STEP  75 IN STRESS PERIOD    3
  ---------------------------------------------------------------------------

            1           2           3           4           5           6           7           8           9          10
 ........................................................................................................................
   1    9.989       8.922       7.834       6.732       5.630       4.542       3.451       2.337       1.191      1.1934E-02
   2    9.989       8.902       7.790       6.658       5.536       4.465       3.402       2.312       1.181      1.1827E-02
   3    9.989       8.865       7.700       6.491       5.298       4.291       3.303       2.263       1.161      1.1634E-02
   4    9.988       8.819       7.574       6.205       4.763       3.994       3.165       2.204       1.140      1.1418E-02
   5    9.988       8.792       7.478       5.868       3.407       3.643       3.061       2.170       1.129      1.1309E-02
   6    9.988       8.820       7.575       6.207       4.765       3.996       3.167       2.205       1.140      1.1423E-02
   7    9.989       8.867       7.704       6.496       5.304       4.297       3.307       2.266       1.163      1.1647E-02
   8    9.989       8.907       7.800       6.672       5.551       4.479       3.413       2.318       1.184      1.1859E-02
   9    9.990       8.933       7.857       6.764       5.667       4.575       3.475       2.352       1.198      1.2003E-02
  10    9.990       8.945       7.882       6.803       5.713       4.615       3.503       2.368       1.205      1.2072E-02

 HEAD WILL BE SAVED ON UNIT   51 AT END OF TIME STEP  75, STRESS PERIOD    3

 DRAWDOWN WILL BE SAVED ON UNIT   52 AT END OF TIME STEP  75, STRESS PERIOD    3
1
  VOLUMETRIC BUDGET FOR ENTIRE MODEL AT END OF TIME STEP 75 IN STRESS PERIOD   3
  ------------------------------------------------------------------------------

     CUMULATIVE VOLUMES      L**3       RATES FOR THIS TIME STEP      L**3/T
     ------------------                 ------------------------

           IN:                                      IN:
           ---                                      ---
             STORAGE =       20380.4941               STORAGE =         224.9932
       CONSTANT HEAD =           0.0000         CONSTANT HEAD =           0.0000
               WELLS =           0.0000                 WELLS =           0.0000
     HEAD DEP BOUNDS =      108840.2734       HEAD DEP BOUNDS =         660.6351

            TOTAL IN =      129220.7656              TOTAL IN =         885.6282

          OUT:                                     OUT:
          ----                                     ----
             STORAGE =           0.5783               STORAGE =           0.0000
       CONSTANT HEAD =           0.0000         CONSTANT HEAD =           0.0000
               WELLS =       22500.0000                 WELLS =         300.0000
     HEAD DEP BOUNDS =      106718.0469       HEAD DEP BOUNDS =         585.6279

           TOTAL OUT =      129218.6250             TOTAL OUT =         885.6279

            IN - OUT =           2.1406              IN - OUT =       3.0518E-04

 PERCENT DISCREPANCY =           0.00     PERCENT DISCREPANCY =           0.00






          TIME SUMMARY AT END OF TIME STEP  75 IN STRESS PERIOD    3
                    SECONDS     MINUTES      HOURS       DAYS        YEARS
                    -----------------------------------------------------------
   TIME STEP LENGTH  86400.      1440.0      24.000      1.0000     2.73785E-03
 STRESS PERIOD TIME 6.48000E+06 1.08000E+05  1800.0      75.000     0.20534    
         TOTAL TIME 1.52064E+07 2.53440E+05  4224.0      176.00     0.48186    
1
 
 SOLVING FOR HEAD 

 OUTPUT CONTROL FOR STRESS PERIOD    3   TIME STEP  76
    SAVE HEAD FOR ALL LAYERS
    SAVE DRAWDOWN FOR ALL LAYERS
    SAVE BUDGET
    PRINT HEAD FOR ALL LAYERS
    PRINT BUDGET
 UBDSV1 SAVING "         STORAGE" ON UNIT  53 AT TIME STEP 76, STRESS PERIOD   3
 UBDSV2 SAVING "   CONSTANT HEAD" ON UNIT  53 AT TIME STEP 76, STRESS PERIOD   3
 UBDSV1 SAVING "FLOW RIGHT FACE " ON UNIT  53 AT TIME STEP 76, STRESS PERIOD   3
 UBDSV1 SAVING "FLOW FRONT FACE " ON UNIT  53 AT TIME STEP 76, STRESS PERIOD   3
1
              HEAD IN LAYER   1 AT END OF TIME STEP  76 IN STRESS PERIOD    3
  ---------------------------------------------------------------------------

            1           2           3           4           5           6           7           8           9          10
 ........................................................................................................................
   1    9.989       8.920       7.832       6.729       5.627       4.538       3.448       2.335       1.190      1.1925E-02
   2    9.989       8.901       7.787       6.654       5.532       4.461       3.399       2.310       1.180      1.1817E-02
   3    9.989       8.863       7.696       6.486       5.293       4.286       3.299       2.260       1.160      1.1621E-02
   4    9.988       8.817       7.570       6.200       4.757       3.989       3.161       2.201       1.138      1.1403E-02
   5    9.988       8.790       7.475       5.863       3.401       3.637       3.056       2.167       1.127      1.1293E-02
   6    9.988       8.818       7.572       6.202       4.759       3.991       3.162       2.202       1.139      1.1407E-02
   7    9.989       8.865       7.701       6.492       5.300       4.292       3.304       2.263       1.161      1.1634E-02
   8    9.989       8.906       7.798       6.669       5.548       4.476       3.410       2.317       1.183      1.1849E-02
   9    9.990       8.932       7.855       6.762       5.665       4.573       3.473       2.351       1.197      1.1996E-02
  10    9.990       8.944       7.881       6.801       5.711       4.613       3.501       2.367       1.204      1.2067E-02

 HEAD WILL BE SAVED ON UNIT   51 AT END OF TIME STEP  76, STRESS PERIOD    3

 DRAWDOWN WILL BE SAVED ON UNIT   52 AT END OF TIME STEP  76, STRESS PERIOD    3
1
  VOLUMETRIC BUDGET FOR ENTIRE MODEL AT END OF TIME STEP 76 IN STRESS PERIOD   3
  ------------------------------------------------------------------------------

     CUMULATIVE VOLUMES      L**3       RATES FOR THIS TIME STEP      L**3/T
     ------------------                 ------------------------

           IN:                                      IN:
           ---                                      ---
             STORAGE =       20604.0938               STORAGE =         223.5990
       CONSTANT HEAD =           0.0000         CONSTANT HEAD =           0.0000
               WELLS =           0.0000                 WELLS =           0.0000
     HEAD DEP BOUNDS =      109501.7109       HEAD DEP BOUNDS =         661.4396

            TOTAL IN =      130105.8047              TOTAL IN =         885.0386

          OUT:                                     OUT:
          ----                                     ----
             STORAGE =           0.5783               STORAGE =           0.0000
       CONSTANT HEAD =           0.0000         CONSTANT HEAD =           0.0000
               WELLS =       22800.0000                 WELLS =         300.0000
     HEAD DEP BOUNDS =      107303.1016       HEAD DEP BOUNDS =         585.0563

           TOTAL OUT =      130103.6797             TOTAL OUT =         885.0563

            IN - OUT =           2.1250              IN - OUT =      -1.7761E-02

 PERCENT DISCREPANCY =           0.00     PERCENT DISCREPANCY =           0.00






          TIME SUMMARY AT END OF TIME STEP  76 IN STRESS PERIOD    3
                    SECONDS     MINUTES      HOURS       DAYS        YEARS
                    -----------------------------------------------------------
   TIME STEP LENGTH  86400.      1440.0      24.000      1.0000     2.73785E-03
 STRESS PERIOD TIME 6.56640E+06 1.09440E+05  1824.0      76.000     0.20808    
         TOTAL TIME 1.52928E+07 2.54880E+05  4248.0      177.00     0.48460    
1
 
 SOLVING FOR HEAD 

 OUTPUT CONTROL FOR STRESS PERIOD    3   TIME STEP  77
    SAVE HEAD FOR ALL LAYERS
    SAVE DRAWDOWN FOR ALL LAYERS
    SAVE BUDGET
    PRINT HEAD FOR ALL LAYERS
    PRINT BUDGET
 UBDSV1 SAVING "         STORAGE" ON UNIT  53 AT TIME STEP 77, STRESS PERIOD   3
 UBDSV2 SAVING "   CONSTANT HEAD" ON UNIT  53 AT TIME STEP 77, STRESS PERIOD   3
 UBDSV1 SAVING "FLOW RIGHT FACE " ON UNIT  53 AT TIME STEP 77, STRESS PERIOD   3
 UBDSV1 SAVING "FLOW FRONT FACE " ON UNIT  53 AT TIME STEP 77, STRESS PERIOD   3
1
              HEAD IN LAYER   1 AT END OF TIME STEP  77 IN STRESS PERIOD    3
  ---------------------------------------------------------------------------

            1           2           3           4           5           6           7           8           9          10
 ........................................................................................................................
   1    9.989       8.919       7.829       6.726       5.623       4.535       3.445       2.334       1.189      1.1915E-02
   2    9.989       8.900       7.785       6.651       5.528       4.458       3.396       2.307       1.179      1.1806E-02
   3    9.989       8.862       7.693       6.482       5.289       4.282       3.295       2.258       1.159      1.1607E-02
   4    9.988       8.815       7.567       6.196       4.752       3.983       3.157       2.198       1.137      1.1387E-02
   5    9.988       8.788       7.471       5.858       3.395       3.631       3.052       2.163       1.126      1.1276E-02
   6    9.988       8.816       7.568       6.198       4.754       3.985       3.158       2.199       1.137      1.1392E-02
   7    9.989       8.864       7.698       6.488       5.295       4.288       3.300       2.261       1.160      1.1621E-02
   8    9.989       8.905       7.796       6.666       5.545       4.473       3.408       2.315       1.182      1.1840E-02
   9    9.990       8.931       7.854       6.760       5.662       4.571       3.472       2.350       1.197      1.1990E-02
  10    9.990       8.943       7.879       6.800       5.710       4.612       3.500       2.366       1.204      1.2062E-02

 HEAD WILL BE SAVED ON UNIT   51 AT END OF TIME STEP  77, STRESS PERIOD    3

 DRAWDOWN WILL BE SAVED ON UNIT   52 AT END OF TIME STEP  77, STRESS PERIOD    3
1
  VOLUMETRIC BUDGET FOR ENTIRE MODEL AT END OF TIME STEP 77 IN STRESS PERIOD   3
  ------------------------------------------------------------------------------

     CUMULATIVE VOLUMES      L**3       RATES FOR THIS TIME STEP      L**3/T
     ------------------                 ------------------------

           IN:                                      IN:
           ---                                      ---
             STORAGE =       20826.3164               STORAGE =         222.2232
       CONSTANT HEAD =           0.0000         CONSTANT HEAD =           0.0000
               WELLS =           0.0000                 WELLS =           0.0000
     HEAD DEP BOUNDS =      110163.9609       HEAD DEP BOUNDS =         662.2525

            TOTAL IN =      130990.2812              TOTAL IN =         884.4757

          OUT:                                     OUT:
          ----                                     ----
             STORAGE =           0.5783               STORAGE =           0.0000
       CONSTANT HEAD =           0.0000         CONSTANT HEAD =           0.0000
               WELLS =       23100.0000                 WELLS =         300.0000
     HEAD DEP BOUNDS =      107887.5859       HEAD DEP BOUNDS =         584.4834

           TOTAL OUT =      130988.1641             TOTAL OUT =         884.4834

            IN - OUT =           2.1172              IN - OUT =      -7.6904E-03

 PERCENT DISCREPANCY =           0.00     PERCENT DISCREPANCY =           0.00






          TIME SUMMARY AT END OF TIME STEP  77 IN STRESS PERIOD    3
                    SECONDS     MINUTES      HOURS       DAYS        YEARS
                    -----------------------------------------------------------
   TIME STEP LENGTH  86400.      1440.0      24.000      1.0000     2.73785E-03
 STRESS PERIOD TIME 6.65280E+06 1.10880E+05  1848.0      77.000     0.21081    
         TOTAL TIME 1.53792E+07 2.56320E+05  4272.0      178.00     0.48734    
1
 
 SOLVING FOR HEAD 

 OUTPUT CONTROL FOR STRESS PERIOD    3   TIME STEP  78
    SAVE HEAD FOR ALL LAYERS
    SAVE DRAWDOWN FOR ALL LAYERS
    SAVE BUDGET
    PRINT HEAD FOR ALL LAYERS
    PRINT BUDGET
 UBDSV1 SAVING "         STORAGE" ON UNIT  53 AT TIME STEP 78, STRESS PERIOD   3
 UBDSV2 SAVING "   CONSTANT HEAD" ON UNIT  53 AT TIME STEP 78, STRESS PERIOD   3
 UBDSV1 SAVING "FLOW RIGHT FACE " ON UNIT  53 AT TIME STEP 78, STRESS PERIOD   3
 UBDSV1 SAVING "FLOW FRONT FACE " ON UNIT  53 AT TIME STEP 78, STRESS PERIOD   3
1
              HEAD IN LAYER   1 AT END OF TIME STEP  78 IN STRESS PERIOD    3
  ---------------------------------------------------------------------------

            1           2           3           4           5           6           7           8           9          10
 ........................................................................................................................
   1    9.989       8.918       7.827       6.723       5.620       4.532       3.443       2.332       1.188      1.1906E-02
   2    9.989       8.898       7.782       6.648       5.524       4.454       3.393       2.305       1.177      1.1795E-02
   3    9.989       8.860       7.690       6.478       5.284       4.277       3.292       2.255       1.157      1.1594E-02
   4    9.988       8.813       7.563       6.191       4.746       3.978       3.152       2.195       1.135      1.1371E-02
   5    9.988       8.786       7.467       5.853       3.389       3.626       3.047       2.160       1.124      1.1260E-02
   6    9.988       8.814       7.565       6.193       4.749       3.980       3.154       2.196       1.136      1.1377E-02
   7    9.989       8.862       7.695       6.484       5.291       4.284       3.297       2.258       1.159      1.1609E-02
   8    9.989       8.904       7.793       6.663       5.541       4.470       3.405       2.313       1.181      1.1830E-02
   9    9.990       8.930       7.852       6.758       5.660       4.568       3.470       2.348       1.196      1.1983E-02
  10    9.990       8.943       7.878       6.798       5.708       4.610       3.499       2.365       1.203      1.2057E-02

 HEAD WILL BE SAVED ON UNIT   51 AT END OF TIME STEP  78, STRESS PERIOD    3

 DRAWDOWN WILL BE SAVED ON UNIT   52 AT END OF TIME STEP  78, STRESS PERIOD    3
1
  VOLUMETRIC BUDGET FOR ENTIRE MODEL AT END OF TIME STEP 78 IN STRESS PERIOD   3
  ------------------------------------------------------------------------------

     CUMULATIVE VOLUMES      L**3       RATES FOR THIS TIME STEP      L**3/T
     ------------------                 ------------------------

           IN:                                      IN:
           ---                                      ---
             STORAGE =       21047.1621               STORAGE =         220.8466
       CONSTANT HEAD =           0.0000         CONSTANT HEAD =           0.0000
               WELLS =           0.0000                 WELLS =           0.0000
     HEAD DEP BOUNDS =      110827.0234       HEAD DEP BOUNDS =         663.0604

            TOTAL IN =      131874.1875              TOTAL IN =         883.9070

          OUT:                                     OUT:
          ----                                     ----
             STORAGE =           0.5783               STORAGE =           0.0000
       CONSTANT HEAD =           0.0000         CONSTANT HEAD =           0.0000
               WELLS =       23400.0000                 WELLS =         300.0000
     HEAD DEP BOUNDS =      108471.5000       HEAD DEP BOUNDS =         583.9109

           TOTAL OUT =      131872.0781             TOTAL OUT =         883.9109

            IN - OUT =           2.1094              IN - OUT =      -3.9673E-03

 PERCENT DISCREPANCY =           0.00     PERCENT DISCREPANCY =           0.00






          TIME SUMMARY AT END OF TIME STEP  78 IN STRESS PERIOD    3
                    SECONDS     MINUTES      HOURS       DAYS        YEARS
                    -----------------------------------------------------------
   TIME STEP LENGTH  86400.      1440.0      24.000      1.0000     2.73785E-03
 STRESS PERIOD TIME 6.73920E+06 1.12320E+05  1872.0      78.000     0.21355    
         TOTAL TIME 1.54656E+07 2.57760E+05  4296.0      179.00     0.49008    
1
 
 SOLVING FOR HEAD 

 OUTPUT CONTROL FOR STRESS PERIOD    3   TIME STEP  79
    SAVE HEAD FOR ALL LAYERS
    SAVE DRAWDOWN FOR ALL LAYERS
    SAVE BUDGET
    PRINT HEAD FOR ALL LAYERS
    PRINT BUDGET
 UBDSV1 SAVING "         STORAGE" ON UNIT  53 AT TIME STEP 79, STRESS PERIOD   3
 UBDSV2 SAVING "   CONSTANT HEAD" ON UNIT  53 AT TIME STEP 79, STRESS PERIOD   3
 UBDSV1 SAVING "FLOW RIGHT FACE " ON UNIT  53 AT TIME STEP 79, STRESS PERIOD   3
 UBDSV1 SAVING "FLOW FRONT FACE " ON UNIT  53 AT TIME STEP 79, STRESS PERIOD   3
1
              HEAD IN LAYER   1 AT END OF TIME STEP  79 IN STRESS PERIOD    3
  ---------------------------------------------------------------------------

            1           2           3           4           5           6           7           8           9          10
 ........................................................................................................................
   1    9.989       8.917       7.825       6.720       5.617       4.529       3.440       2.330       1.188      1.1897E-02
   2    9.989       8.897       7.780       6.644       5.520       4.450       3.390       2.303       1.176      1.1784E-02
   3    9.989       8.858       7.687       6.474       5.279       4.273       3.288       2.253       1.156      1.1581E-02
   4    9.988       8.812       7.560       6.186       4.741       3.973       3.148       2.192       1.134      1.1356E-02
   5    9.988       8.784       7.464       5.848       3.383       3.620       3.043       2.157       1.123      1.1244E-02
   6    9.988       8.812       7.561       6.188       4.743       3.975       3.150       2.193       1.134      1.1361E-02
   7    9.989       8.861       7.692       6.481       5.286       4.280       3.293       2.256       1.158      1.1596E-02
   8    9.989       8.903       7.791       6.660       5.538       4.466       3.402       2.311       1.180      1.1821E-02
   9    9.989       8.930       7.850       6.756       5.658       4.566       3.468       2.347       1.195      1.1976E-02
  10    9.990       8.942       7.877       6.796       5.706       4.608       3.497       2.364       1.203      1.2052E-02

 HEAD WILL BE SAVED ON UNIT   51 AT END OF TIME STEP  79, STRESS PERIOD    3

 DRAWDOWN WILL BE SAVED ON UNIT   52 AT END OF TIME STEP  79, STRESS PERIOD    3
1
  VOLUMETRIC BUDGET FOR ENTIRE MODEL AT END OF TIME STEP 79 IN STRESS PERIOD   3
  ------------------------------------------------------------------------------

     CUMULATIVE VOLUMES      L**3       RATES FOR THIS TIME STEP      L**3/T
     ------------------                 ------------------------

           IN:                                      IN:
           ---                                      ---
             STORAGE =       21266.6426               STORAGE =         219.4811
       CONSTANT HEAD =           0.0000         CONSTANT HEAD =           0.0000
               WELLS =           0.0000                 WELLS =           0.0000
     HEAD DEP BOUNDS =      111490.8750       HEAD DEP BOUNDS =         663.8502

            TOTAL IN =      132757.5156              TOTAL IN =         883.3314

          OUT:                                     OUT:
          ----                                     ----
             STORAGE =           0.5783               STORAGE =           0.0000
       CONSTANT HEAD =           0.0000         CONSTANT HEAD =           0.0000
               WELLS =       23700.0000                 WELLS =         300.0000
     HEAD DEP BOUNDS =      109054.8359       HEAD DEP BOUNDS =         583.3390

           TOTAL OUT =      132755.4062             TOTAL OUT =         883.3390

            IN - OUT =           2.1094              IN - OUT =      -7.6294E-03

 PERCENT DISCREPANCY =           0.00     PERCENT DISCREPANCY =           0.00






          TIME SUMMARY AT END OF TIME STEP  79 IN STRESS PERIOD    3
                    SECONDS     MINUTES      HOURS       DAYS        YEARS
                    -----------------------------------------------------------
   TIME STEP LENGTH  86400.      1440.0      24.000      1.0000     2.73785E-03
 STRESS PERIOD TIME 6.82560E+06 1.13760E+05  1896.0      79.000     0.21629    
         TOTAL TIME 1.55520E+07 2.59200E+05  4320.0      180.00     0.49281    
1
 
 SOLVING FOR HEAD 

 OUTPUT CONTROL FOR STRESS PERIOD    3   TIME STEP  80
    SAVE HEAD FOR ALL LAYERS
    SAVE DRAWDOWN FOR ALL LAYERS
    SAVE BUDGET
    PRINT HEAD FOR ALL LAYERS
    PRINT BUDGET
 UBDSV1 SAVING "         STORAGE" ON UNIT  53 AT TIME STEP 80, STRESS PERIOD   3
 UBDSV2 SAVING "   CONSTANT HEAD" ON UNIT  53 AT TIME STEP 80, STRESS PERIOD   3
 UBDSV1 SAVING "FLOW RIGHT FACE " ON UNIT  53 AT TIME STEP 80, STRESS PERIOD   3
 UBDSV1 SAVING "FLOW FRONT FACE " ON UNIT  53 AT TIME STEP 80, STRESS PERIOD   3
1
              HEAD IN LAYER   1 AT END OF TIME STEP  80 IN STRESS PERIOD    3
  ---------------------------------------------------------------------------

            1           2           3           4           5           6           7           8           9          10
 ........................................................................................................................
   1    9.989       8.916       7.823       6.717       5.613       4.526       3.438       2.328       1.187      1.1887E-02
   2    9.989       8.896       7.777       6.641       5.517       4.447       3.387       2.301       1.175      1.1773E-02
   3    9.989       8.857       7.684       6.470       5.275       4.269       3.284       2.250       1.155      1.1567E-02
   4    9.988       8.810       7.556       6.181       4.736       3.968       3.144       2.189       1.132      1.1341E-02
   5    9.988       8.782       7.460       5.843       3.377       3.615       3.038       2.154       1.121      1.1228E-02
   6    9.988       8.811       7.558       6.184       4.738       3.970       3.146       2.190       1.133      1.1346E-02
   7    9.989       8.859       7.689       6.477       5.282       4.275       3.290       2.253       1.156      1.1584E-02
   8    9.989       8.902       7.789       6.657       5.535       4.463       3.400       2.309       1.179      1.1811E-02
   9    9.989       8.929       7.849       6.754       5.655       4.564       3.466       2.346       1.195      1.1969E-02
  10    9.990       8.941       7.876       6.795       5.704       4.606       3.496       2.363       1.202      1.2046E-02

 HEAD WILL BE SAVED ON UNIT   51 AT END OF TIME STEP  80, STRESS PERIOD    3

 DRAWDOWN WILL BE SAVED ON UNIT   52 AT END OF TIME STEP  80, STRESS PERIOD    3
1
  VOLUMETRIC BUDGET FOR ENTIRE MODEL AT END OF TIME STEP 80 IN STRESS PERIOD   3
  ------------------------------------------------------------------------------

     CUMULATIVE VOLUMES      L**3       RATES FOR THIS TIME STEP      L**3/T
     ------------------                 ------------------------

           IN:                                      IN:
           ---                                      ---
             STORAGE =       21484.7539               STORAGE =         218.1116
       CONSTANT HEAD =           0.0000         CONSTANT HEAD =           0.0000
               WELLS =           0.0000                 WELLS =           0.0000
     HEAD DEP BOUNDS =      112155.5156       HEAD DEP BOUNDS =         664.6420

            TOTAL IN =      133640.2656              TOTAL IN =         882.7537

          OUT:                                     OUT:
          ----                                     ----
             STORAGE =           0.5783               STORAGE =           0.0000
       CONSTANT HEAD =           0.0000         CONSTANT HEAD =           0.0000
               WELLS =       24000.0000                 WELLS =         300.0000
     HEAD DEP BOUNDS =      109637.6016       HEAD DEP BOUNDS =         582.7654

           TOTAL OUT =      133638.1875             TOTAL OUT =         882.7654

            IN - OUT =           2.0781              IN - OUT =      -1.1719E-02

 PERCENT DISCREPANCY =           0.00     PERCENT DISCREPANCY =           0.00






          TIME SUMMARY AT END OF TIME STEP  80 IN STRESS PERIOD    3
                    SECONDS     MINUTES      HOURS       DAYS        YEARS
                    -----------------------------------------------------------
   TIME STEP LENGTH  86400.      1440.0      24.000      1.0000     2.73785E-03
 STRESS PERIOD TIME 6.91200E+06 1.15200E+05  1920.0      80.000     0.21903    
         TOTAL TIME 1.56384E+07 2.60640E+05  4344.0      181.00     0.49555    
1
 
 SOLVING FOR HEAD 

 OUTPUT CONTROL FOR STRESS PERIOD    3   TIME STEP  81
    SAVE HEAD FOR ALL LAYERS
    SAVE DRAWDOWN FOR ALL LAYERS
    SAVE BUDGET
    PRINT HEAD FOR ALL LAYERS
    PRINT BUDGET
 UBDSV1 SAVING "         STORAGE" ON UNIT  53 AT TIME STEP 81, STRESS PERIOD   3
 UBDSV2 SAVING "   CONSTANT HEAD" ON UNIT  53 AT TIME STEP 81, STRESS PERIOD   3
 UBDSV1 SAVING "FLOW RIGHT FACE " ON UNIT  53 AT TIME STEP 81, STRESS PERIOD   3
 UBDSV1 SAVING "FLOW FRONT FACE " ON UNIT  53 AT TIME STEP 81, STRESS PERIOD   3
1
              HEAD IN LAYER   1 AT END OF TIME STEP  81 IN STRESS PERIOD    3
  ---------------------------------------------------------------------------

            1           2           3           4           5           6           7           8           9          10
 ........................................................................................................................
   1    9.989       8.915       7.821       6.714       5.610       4.523       3.435       2.326       1.186      1.1878E-02
   2    9.989       8.894       7.775       6.637       5.513       4.443       3.384       2.299       1.174      1.1762E-02
   3    9.989       8.855       7.681       6.466       5.270       4.264       3.281       2.248       1.154      1.1554E-02
   4    9.988       8.808       7.553       6.177       4.730       3.963       3.139       2.186       1.131      1.1325E-02
   5    9.988       8.780       7.456       5.838       3.372       3.610       3.034       2.151       1.119      1.1212E-02
   6    9.988       8.809       7.555       6.179       4.733       3.965       3.141       2.187       1.131      1.1332E-02
   7    9.989       8.858       7.686       6.473       5.278       4.271       3.286       2.251       1.155      1.1571E-02
   8    9.989       8.900       7.787       6.654       5.532       4.460       3.397       2.307       1.178      1.1802E-02
   9    9.989       8.928       7.847       6.752       5.653       4.561       3.464       2.344       1.194      1.1962E-02
  10    9.990       8.941       7.874       6.793       5.702       4.604       3.494       2.362       1.202      1.2041E-02

 HEAD WILL BE SAVED ON UNIT   51 AT END OF TIME STEP  81, STRESS PERIOD    3

 DRAWDOWN WILL BE SAVED ON UNIT   52 AT END OF TIME STEP  81, STRESS PERIOD    3
1
  VOLUMETRIC BUDGET FOR ENTIRE MODEL AT END OF TIME STEP 81 IN STRESS PERIOD   3
  ------------------------------------------------------------------------------

     CUMULATIVE VOLUMES      L**3       RATES FOR THIS TIME STEP      L**3/T
     ------------------                 ------------------------

           IN:                                      IN:
           ---                                      ---
             STORAGE =       21701.5117               STORAGE =         216.7582
       CONSTANT HEAD =           0.0000         CONSTANT HEAD =           0.0000
               WELLS =           0.0000                 WELLS =           0.0000
     HEAD DEP BOUNDS =      112820.9531       HEAD DEP BOUNDS =         665.4355

            TOTAL IN =      134522.4688              TOTAL IN =         882.1937

          OUT:                                     OUT:
          ----                                     ----
             STORAGE =           0.5783               STORAGE =           0.0000
       CONSTANT HEAD =           0.0000         CONSTANT HEAD =           0.0000
               WELLS =       24300.0000                 WELLS =         300.0000
     HEAD DEP BOUNDS =      110219.7969       HEAD DEP BOUNDS =         582.1934

           TOTAL OUT =      134520.3750             TOTAL OUT =         882.1934

            IN - OUT =           2.0938              IN - OUT =       3.6621E-04

 PERCENT DISCREPANCY =           0.00     PERCENT DISCREPANCY =           0.00






          TIME SUMMARY AT END OF TIME STEP  81 IN STRESS PERIOD    3
                    SECONDS     MINUTES      HOURS       DAYS        YEARS
                    -----------------------------------------------------------
   TIME STEP LENGTH  86400.      1440.0      24.000      1.0000     2.73785E-03
 STRESS PERIOD TIME 6.99840E+06 1.16640E+05  1944.0      81.000     0.22177    
         TOTAL TIME 1.57248E+07 2.62080E+05  4368.0      182.00     0.49829    
1
 
 SOLVING FOR HEAD 

 OUTPUT CONTROL FOR STRESS PERIOD    3   TIME STEP  82
    SAVE HEAD FOR ALL LAYERS
    SAVE DRAWDOWN FOR ALL LAYERS
    SAVE BUDGET
    PRINT HEAD FOR ALL LAYERS
    PRINT BUDGET
 UBDSV1 SAVING "         STORAGE" ON UNIT  53 AT TIME STEP 82, STRESS PERIOD   3
 UBDSV2 SAVING "   CONSTANT HEAD" ON UNIT  53 AT TIME STEP 82, STRESS PERIOD   3
 UBDSV1 SAVING "FLOW RIGHT FACE " ON UNIT  53 AT TIME STEP 82, STRESS PERIOD   3
 UBDSV1 SAVING "FLOW FRONT FACE " ON UNIT  53 AT TIME STEP 82, STRESS PERIOD   3
1
              HEAD IN LAYER   1 AT END OF TIME STEP  82 IN STRESS PERIOD    3
  ---------------------------------------------------------------------------

            1           2           3           4           5           6           7           8           9          10
 ........................................................................................................................
   1    9.989       8.913       7.819       6.711       5.607       4.519       3.432       2.324       1.185      1.1868E-02
   2    9.989       8.893       7.772       6.634       5.509       4.439       3.381       2.297       1.173      1.1751E-02
   3    9.989       8.854       7.678       6.462       5.266       4.260       3.277       2.245       1.152      1.1541E-02
   4    9.988       8.806       7.550       6.172       4.725       3.958       3.135       2.183       1.129      1.1310E-02
   5    9.988       8.778       7.453       5.833       3.366       3.604       3.030       2.148       1.118      1.1196E-02
   6    9.988       8.807       7.551       6.175       4.728       3.960       3.137       2.185       1.130      1.1317E-02
   7    9.989       8.857       7.684       6.469       5.274       4.267       3.283       2.249       1.154      1.1559E-02
   8    9.989       8.899       7.785       6.651       5.528       4.457       3.395       2.306       1.177      1.1792E-02
   9    9.989       8.927       7.846       6.749       5.650       4.559       3.462       2.343       1.193      1.1956E-02
  10    9.990       8.940       7.873       6.791       5.700       4.603       3.492       2.361       1.201      1.2035E-02

 HEAD WILL BE SAVED ON UNIT   51 AT END OF TIME STEP  82, STRESS PERIOD    3

 DRAWDOWN WILL BE SAVED ON UNIT   52 AT END OF TIME STEP  82, STRESS PERIOD    3
1
  VOLUMETRIC BUDGET FOR ENTIRE MODEL AT END OF TIME STEP 82 IN STRESS PERIOD   3
  ------------------------------------------------------------------------------

     CUMULATIVE VOLUMES      L**3       RATES FOR THIS TIME STEP      L**3/T
     ------------------                 ------------------------

           IN:                                      IN:
           ---                                      ---
             STORAGE =       21916.9141               STORAGE =         215.4033
       CONSTANT HEAD =           0.0000         CONSTANT HEAD =           0.0000
               WELLS =           0.0000                 WELLS =           0.0000
     HEAD DEP BOUNDS =      113487.1641       HEAD DEP BOUNDS =         666.2108

            TOTAL IN =      135404.0781              TOTAL IN =         881.6141

          OUT:                                     OUT:
          ----                                     ----
             STORAGE =           0.5783               STORAGE =           0.0000
       CONSTANT HEAD =           0.0000         CONSTANT HEAD =           0.0000
               WELLS =       24600.0000                 WELLS =         300.0000
     HEAD DEP BOUNDS =      110801.4141       HEAD DEP BOUNDS =         581.6206

           TOTAL OUT =      135402.0000             TOTAL OUT =         881.6206

            IN - OUT =           2.0781              IN - OUT =      -6.4697E-03

 PERCENT DISCREPANCY =           0.00     PERCENT DISCREPANCY =           0.00






          TIME SUMMARY AT END OF TIME STEP  82 IN STRESS PERIOD    3
                    SECONDS     MINUTES      HOURS       DAYS        YEARS
                    -----------------------------------------------------------
   TIME STEP LENGTH  86400.      1440.0      24.000      1.0000     2.73785E-03
 STRESS PERIOD TIME 7.08480E+06 1.18080E+05  1968.0      82.000     0.22450    
         TOTAL TIME 1.58112E+07 2.63520E+05  4392.0      183.00     0.50103    
1
 
 SOLVING FOR HEAD 

 OUTPUT CONTROL FOR STRESS PERIOD    3   TIME STEP  83
    SAVE HEAD FOR ALL LAYERS
    SAVE DRAWDOWN FOR ALL LAYERS
    SAVE BUDGET
    PRINT HEAD FOR ALL LAYERS
    PRINT BUDGET
 UBDSV1 SAVING "         STORAGE" ON UNIT  53 AT TIME STEP 83, STRESS PERIOD   3
 UBDSV2 SAVING "   CONSTANT HEAD" ON UNIT  53 AT TIME STEP 83, STRESS PERIOD   3
 UBDSV1 SAVING "FLOW RIGHT FACE " ON UNIT  53 AT TIME STEP 83, STRESS PERIOD   3
 UBDSV1 SAVING "FLOW FRONT FACE " ON UNIT  53 AT TIME STEP 83, STRESS PERIOD   3
1
              HEAD IN LAYER   1 AT END OF TIME STEP  83 IN STRESS PERIOD    3
  ---------------------------------------------------------------------------

            1           2           3           4           5           6           7           8           9          10
 ........................................................................................................................
   1    9.989       8.912       7.816       6.708       5.604       4.516       3.430       2.323       1.184      1.1858E-02
   2    9.989       8.892       7.770       6.631       5.505       4.436       3.378       2.295       1.172      1.1740E-02
   3    9.989       8.852       7.675       6.458       5.261       4.256       3.274       2.242       1.151      1.1527E-02
   4    9.988       8.805       7.546       6.168       4.720       3.953       3.131       2.180       1.128      1.1295E-02
   5    9.988       8.776       7.449       5.828       3.361       3.599       3.025       2.145       1.116      1.1180E-02
   6    9.988       8.806       7.548       6.170       4.723       3.956       3.133       2.182       1.128      1.1302E-02
   7    9.989       8.855       7.681       6.465       5.269       4.263       3.279       2.246       1.153      1.1546E-02
   8    9.989       8.898       7.783       6.648       5.525       4.454       3.392       2.304       1.176      1.1783E-02
   9    9.989       8.926       7.844       6.747       5.648       4.557       3.460       2.342       1.193      1.1948E-02
  10    9.990       8.939       7.872       6.790       5.698       4.601       3.491       2.360       1.201      1.2030E-02

 HEAD WILL BE SAVED ON UNIT   51 AT END OF TIME STEP  83, STRESS PERIOD    3

 DRAWDOWN WILL BE SAVED ON UNIT   52 AT END OF TIME STEP  83, STRESS PERIOD    3
1
  VOLUMETRIC BUDGET FOR ENTIRE MODEL AT END OF TIME STEP 83 IN STRESS PERIOD   3
  ------------------------------------------------------------------------------

     CUMULATIVE VOLUMES      L**3       RATES FOR THIS TIME STEP      L**3/T
     ------------------                 ------------------------

           IN:                                      IN:
           ---                                      ---
             STORAGE =       22130.9648               STORAGE =         214.0504
       CONSTANT HEAD =           0.0000         CONSTANT HEAD =           0.0000
               WELLS =           0.0000                 WELLS =           0.0000
     HEAD DEP BOUNDS =      114154.1484       HEAD DEP BOUNDS =         666.9813

            TOTAL IN =      136285.1094              TOTAL IN =         881.0317

          OUT:                                     OUT:
          ----                                     ----
             STORAGE =           0.5783               STORAGE =           0.0000
       CONSTANT HEAD =           0.0000         CONSTANT HEAD =           0.0000
               WELLS =       24900.0000                 WELLS =         300.0000
     HEAD DEP BOUNDS =      111382.4609       HEAD DEP BOUNDS =         581.0463

           TOTAL OUT =      136283.0312             TOTAL OUT =         881.0463

            IN - OUT =           2.0781              IN - OUT =      -1.4587E-02

 PERCENT DISCREPANCY =           0.00     PERCENT DISCREPANCY =           0.00






          TIME SUMMARY AT END OF TIME STEP  83 IN STRESS PERIOD    3
                    SECONDS     MINUTES      HOURS       DAYS        YEARS
                    -----------------------------------------------------------
   TIME STEP LENGTH  86400.      1440.0      24.000      1.0000     2.73785E-03
 STRESS PERIOD TIME 7.17120E+06 1.19520E+05  1992.0      83.000     0.22724    
         TOTAL TIME 1.58976E+07 2.64960E+05  4416.0      184.00     0.50376    
1
 
 SOLVING FOR HEAD 

 OUTPUT CONTROL FOR STRESS PERIOD    3   TIME STEP  84
    SAVE HEAD FOR ALL LAYERS
    SAVE DRAWDOWN FOR ALL LAYERS
    SAVE BUDGET
    PRINT HEAD FOR ALL LAYERS
    PRINT BUDGET
 UBDSV1 SAVING "         STORAGE" ON UNIT  53 AT TIME STEP 84, STRESS PERIOD   3
 UBDSV2 SAVING "   CONSTANT HEAD" ON UNIT  53 AT TIME STEP 84, STRESS PERIOD   3
 UBDSV1 SAVING "FLOW RIGHT FACE " ON UNIT  53 AT TIME STEP 84, STRESS PERIOD   3
 UBDSV1 SAVING "FLOW FRONT FACE " ON UNIT  53 AT TIME STEP 84, STRESS PERIOD   3
1
              HEAD IN LAYER   1 AT END OF TIME STEP  84 IN STRESS PERIOD    3
  ---------------------------------------------------------------------------

            1           2           3           4           5           6           7           8           9          10
 ........................................................................................................................
   1    9.989       8.911       7.814       6.705       5.600       4.513       3.427       2.321       1.183      1.1849E-02
   2    9.989       8.890       7.767       6.627       5.502       4.432       3.375       2.293       1.171      1.1729E-02
   3    9.989       8.851       7.673       6.454       5.257       4.251       3.270       2.240       1.150      1.1514E-02
   4    9.988       8.803       7.543       6.163       4.715       3.948       3.127       2.177       1.126      1.1280E-02
   5    9.988       8.775       7.446       5.824       3.355       3.594       3.021       2.142       1.115      1.1164E-02
   6    9.988       8.804       7.545       6.166       4.718       3.951       3.129       2.179       1.127      1.1287E-02
   7    9.989       8.854       7.678       6.462       5.265       4.259       3.276       2.244       1.152      1.1534E-02
   8    9.989       8.897       7.780       6.646       5.522       4.451       3.389       2.302       1.175      1.1773E-02
   9    9.989       8.925       7.842       6.745       5.646       4.554       3.458       2.340       1.192      1.1941E-02
  10    9.990       8.939       7.870       6.788       5.696       4.599       3.489       2.359       1.200      1.2024E-02

 HEAD WILL BE SAVED ON UNIT   51 AT END OF TIME STEP  84, STRESS PERIOD    3

 DRAWDOWN WILL BE SAVED ON UNIT   52 AT END OF TIME STEP  84, STRESS PERIOD    3
1
  VOLUMETRIC BUDGET FOR ENTIRE MODEL AT END OF TIME STEP 84 IN STRESS PERIOD   3
  ------------------------------------------------------------------------------

     CUMULATIVE VOLUMES      L**3       RATES FOR THIS TIME STEP      L**3/T
     ------------------                 ------------------------

           IN:                                      IN:
           ---                                      ---
             STORAGE =       22343.6777               STORAGE =         212.7133
       CONSTANT HEAD =           0.0000         CONSTANT HEAD =           0.0000
               WELLS =           0.0000                 WELLS =           0.0000
     HEAD DEP BOUNDS =      114821.9062       HEAD DEP BOUNDS =         667.7602

            TOTAL IN =      137165.5781              TOTAL IN =         880.4734

          OUT:                                     OUT:
          ----                                     ----
             STORAGE =           0.5783               STORAGE =           0.0000
       CONSTANT HEAD =           0.0000         CONSTANT HEAD =           0.0000
               WELLS =       25200.0000                 WELLS =         300.0000
     HEAD DEP BOUNDS =      111962.9297       HEAD DEP BOUNDS =         580.4725

           TOTAL OUT =      137163.5000             TOTAL OUT =         880.4725

            IN - OUT =           2.0781              IN - OUT =       9.7656E-04

 PERCENT DISCREPANCY =           0.00     PERCENT DISCREPANCY =           0.00






          TIME SUMMARY AT END OF TIME STEP  84 IN STRESS PERIOD    3
                    SECONDS     MINUTES      HOURS       DAYS        YEARS
                    -----------------------------------------------------------
   TIME STEP LENGTH  86400.      1440.0      24.000      1.0000     2.73785E-03
 STRESS PERIOD TIME 7.25760E+06 1.20960E+05  2016.0      84.000     0.22998    
         TOTAL TIME 1.59840E+07 2.66400E+05  4440.0      185.00     0.50650    
1
 
 SOLVING FOR HEAD 

 OUTPUT CONTROL FOR STRESS PERIOD    3   TIME STEP  85
    SAVE HEAD FOR ALL LAYERS
    SAVE DRAWDOWN FOR ALL LAYERS
    SAVE BUDGET
    PRINT HEAD FOR ALL LAYERS
    PRINT BUDGET
 UBDSV1 SAVING "         STORAGE" ON UNIT  53 AT TIME STEP 85, STRESS PERIOD   3
 UBDSV2 SAVING "   CONSTANT HEAD" ON UNIT  53 AT TIME STEP 85, STRESS PERIOD   3
 UBDSV1 SAVING "FLOW RIGHT FACE " ON UNIT  53 AT TIME STEP 85, STRESS PERIOD   3
 UBDSV1 SAVING "FLOW FRONT FACE " ON UNIT  53 AT TIME STEP 85, STRESS PERIOD   3
1
              HEAD IN LAYER   1 AT END OF TIME STEP  85 IN STRESS PERIOD    3
  ---------------------------------------------------------------------------

            1           2           3           4           5           6           7           8           9          10
 ........................................................................................................................
   1    9.989       8.910       7.812       6.702       5.597       4.510       3.424       2.319       1.182      1.1839E-02
   2    9.989       8.889       7.765       6.624       5.498       4.428       3.372       2.291       1.170      1.1718E-02
   3    9.989       8.849       7.670       6.450       5.252       4.247       3.266       2.237       1.148      1.1501E-02
   4    9.988       8.801       7.540       6.159       4.710       3.943       3.123       2.175       1.125      1.1265E-02
   5    9.988       8.773       7.443       5.819       3.350       3.589       3.017       2.139       1.113      1.1149E-02
   6    9.988       8.802       7.542       6.162       4.713       3.946       3.125       2.176       1.126      1.1272E-02
   7    9.989       8.852       7.676       6.458       5.261       4.255       3.273       2.242       1.150      1.1521E-02
   8    9.989       8.896       7.778       6.643       5.519       4.448       3.387       2.300       1.174      1.1764E-02
   9    9.989       8.925       7.841       6.743       5.643       4.552       3.456       2.339       1.191      1.1934E-02
  10    9.990       8.938       7.869       6.786       5.694       4.597       3.488       2.357       1.200      1.2018E-02

 HEAD WILL BE SAVED ON UNIT   51 AT END OF TIME STEP  85, STRESS PERIOD    3

 DRAWDOWN WILL BE SAVED ON UNIT   52 AT END OF TIME STEP  85, STRESS PERIOD    3
1
  VOLUMETRIC BUDGET FOR ENTIRE MODEL AT END OF TIME STEP 85 IN STRESS PERIOD   3
  ------------------------------------------------------------------------------

     CUMULATIVE VOLUMES      L**3       RATES FOR THIS TIME STEP      L**3/T
     ------------------                 ------------------------

           IN:                                      IN:
           ---                                      ---
             STORAGE =       22555.0547               STORAGE =         211.3773
       CONSTANT HEAD =           0.0000         CONSTANT HEAD =           0.0000
               WELLS =           0.0000                 WELLS =           0.0000
     HEAD DEP BOUNDS =      115490.4375       HEAD DEP BOUNDS =         668.5275

            TOTAL IN =      138045.5000              TOTAL IN =         879.9047

          OUT:                                     OUT:
          ----                                     ----
             STORAGE =           0.5783               STORAGE =           0.0000
       CONSTANT HEAD =           0.0000         CONSTANT HEAD =           0.0000
               WELLS =       25500.0000                 WELLS =         300.0000
     HEAD DEP BOUNDS =      112542.8359       HEAD DEP BOUNDS =         579.9037

           TOTAL OUT =      138043.4062             TOTAL OUT =         879.9037

            IN - OUT =           2.0938              IN - OUT =       9.7656E-04

 PERCENT DISCREPANCY =           0.00     PERCENT DISCREPANCY =           0.00






          TIME SUMMARY AT END OF TIME STEP  85 IN STRESS PERIOD    3
                    SECONDS     MINUTES      HOURS       DAYS        YEARS
                    -----------------------------------------------------------
   TIME STEP LENGTH  86400.      1440.0      24.000      1.0000     2.73785E-03
 STRESS PERIOD TIME 7.34400E+06 1.22400E+05  2040.0      85.000     0.23272    
         TOTAL TIME 1.60704E+07 2.67840E+05  4464.0      186.00     0.50924    
1
 
 SOLVING FOR HEAD 

 OUTPUT CONTROL FOR STRESS PERIOD    3   TIME STEP  86
    SAVE HEAD FOR ALL LAYERS
    SAVE DRAWDOWN FOR ALL LAYERS
    SAVE BUDGET
    PRINT HEAD FOR ALL LAYERS
    PRINT BUDGET
 UBDSV1 SAVING "         STORAGE" ON UNIT  53 AT TIME STEP 86, STRESS PERIOD   3
 UBDSV2 SAVING "   CONSTANT HEAD" ON UNIT  53 AT TIME STEP 86, STRESS PERIOD   3
 UBDSV1 SAVING "FLOW RIGHT FACE " ON UNIT  53 AT TIME STEP 86, STRESS PERIOD   3
 UBDSV1 SAVING "FLOW FRONT FACE " ON UNIT  53 AT TIME STEP 86, STRESS PERIOD   3
1
              HEAD IN LAYER   1 AT END OF TIME STEP  86 IN STRESS PERIOD    3
  ---------------------------------------------------------------------------

            1           2           3           4           5           6           7           8           9          10
 ........................................................................................................................
   1    9.989       8.909       7.810       6.699       5.594       4.507       3.422       2.317       1.181      1.1829E-02
   2    9.989       8.888       7.762       6.621       5.494       4.425       3.369       2.288       1.169      1.1706E-02
   3    9.989       8.848       7.667       6.446       5.248       4.243       3.263       2.235       1.147      1.1488E-02
   4    9.988       8.799       7.537       6.154       4.705       3.938       3.119       2.172       1.123      1.1250E-02
   5    9.988       8.771       7.439       5.815       3.344       3.584       3.012       2.136       1.112      1.1133E-02
   6    9.988       8.801       7.539       6.157       4.708       3.941       3.121       2.173       1.124      1.1258E-02
   7    9.989       8.851       7.673       6.455       5.257       4.251       3.269       2.239       1.149      1.1509E-02
   8    9.989       8.895       7.776       6.640       5.516       4.445       3.384       2.298       1.173      1.1754E-02
   9    9.989       8.924       7.839       6.741       5.641       4.550       3.454       2.338       1.191      1.1927E-02
  10    9.990       8.937       7.868       6.784       5.692       4.595       3.486       2.356       1.199      1.2012E-02

 HEAD WILL BE SAVED ON UNIT   51 AT END OF TIME STEP  86, STRESS PERIOD    3

 DRAWDOWN WILL BE SAVED ON UNIT   52 AT END OF TIME STEP  86, STRESS PERIOD    3
1
  VOLUMETRIC BUDGET FOR ENTIRE MODEL AT END OF TIME STEP 86 IN STRESS PERIOD   3
  ------------------------------------------------------------------------------

     CUMULATIVE VOLUMES      L**3       RATES FOR THIS TIME STEP      L**3/T
     ------------------                 ------------------------

           IN:                                      IN:
           ---                                      ---
             STORAGE =       22765.1035               STORAGE =         210.0480
       CONSTANT HEAD =           0.0000         CONSTANT HEAD =           0.0000
               WELLS =           0.0000                 WELLS =           0.0000
     HEAD DEP BOUNDS =      116159.7188       HEAD DEP BOUNDS =         669.2833

            TOTAL IN =      138924.8281              TOTAL IN =         879.3313

          OUT:                                     OUT:
          ----                                     ----
             STORAGE =           0.5783               STORAGE =           0.0000
       CONSTANT HEAD =           0.0000         CONSTANT HEAD =           0.0000
               WELLS =       25800.0000                 WELLS =         300.0000
     HEAD DEP BOUNDS =      113122.1641       HEAD DEP BOUNDS =         579.3315

           TOTAL OUT =      138922.7500             TOTAL OUT =         879.3315

            IN - OUT =           2.0781              IN - OUT =      -2.4414E-04

 PERCENT DISCREPANCY =           0.00     PERCENT DISCREPANCY =           0.00






          TIME SUMMARY AT END OF TIME STEP  86 IN STRESS PERIOD    3
                    SECONDS     MINUTES      HOURS       DAYS        YEARS
                    -----------------------------------------------------------
   TIME STEP LENGTH  86400.      1440.0      24.000      1.0000     2.73785E-03
 STRESS PERIOD TIME 7.43040E+06 1.23840E+05  2064.0      86.000     0.23546    
         TOTAL TIME 1.61568E+07 2.69280E+05  4488.0      187.00     0.51198    
1
 
 SOLVING FOR HEAD 

 OUTPUT CONTROL FOR STRESS PERIOD    3   TIME STEP  87
    SAVE HEAD FOR ALL LAYERS
    SAVE DRAWDOWN FOR ALL LAYERS
    SAVE BUDGET
    PRINT HEAD FOR ALL LAYERS
    PRINT BUDGET
 UBDSV1 SAVING "         STORAGE" ON UNIT  53 AT TIME STEP 87, STRESS PERIOD   3
 UBDSV2 SAVING "   CONSTANT HEAD" ON UNIT  53 AT TIME STEP 87, STRESS PERIOD   3
 UBDSV1 SAVING "FLOW RIGHT FACE " ON UNIT  53 AT TIME STEP 87, STRESS PERIOD   3
 UBDSV1 SAVING "FLOW FRONT FACE " ON UNIT  53 AT TIME STEP 87, STRESS PERIOD   3
1
              HEAD IN LAYER   1 AT END OF TIME STEP  87 IN STRESS PERIOD    3
  ---------------------------------------------------------------------------

            1           2           3           4           5           6           7           8           9          10
 ........................................................................................................................
   1    9.989       8.908       7.808       6.696       5.590       4.504       3.419       2.315       1.180      1.1819E-02
   2    9.989       8.887       7.760       6.618       5.490       4.421       3.366       2.286       1.168      1.1695E-02
   3    9.989       8.846       7.664       6.443       5.244       4.239       3.259       2.232       1.146      1.1475E-02
   4    9.988       8.798       7.533       6.150       4.700       3.934       3.115       2.169       1.122      1.1235E-02
   5    9.988       8.769       7.436       5.810       3.339       3.579       3.008       2.133       1.110      1.1118E-02
   6    9.988       8.799       7.536       6.153       4.703       3.937       3.117       2.171       1.123      1.1243E-02
   7    9.989       8.850       7.670       6.451       5.253       4.247       3.266       2.237       1.148      1.1496E-02
   8    9.989       8.894       7.774       6.637       5.512       4.442       3.382       2.296       1.172      1.1744E-02
   9    9.989       8.923       7.838       6.739       5.638       4.548       3.452       2.336       1.190      1.1920E-02
  10    9.990       8.937       7.867       6.783       5.690       4.593       3.485       2.355       1.198      1.2007E-02

 HEAD WILL BE SAVED ON UNIT   51 AT END OF TIME STEP  87, STRESS PERIOD    3

 DRAWDOWN WILL BE SAVED ON UNIT   52 AT END OF TIME STEP  87, STRESS PERIOD    3
1
  VOLUMETRIC BUDGET FOR ENTIRE MODEL AT END OF TIME STEP 87 IN STRESS PERIOD   3
  ------------------------------------------------------------------------------

     CUMULATIVE VOLUMES      L**3       RATES FOR THIS TIME STEP      L**3/T
     ------------------                 ------------------------

           IN:                                      IN:
           ---                                      ---
             STORAGE =       22973.8320               STORAGE =         208.7285
       CONSTANT HEAD =           0.0000         CONSTANT HEAD =           0.0000
               WELLS =           0.0000                 WELLS =           0.0000
     HEAD DEP BOUNDS =      116829.7578       HEAD DEP BOUNDS =         670.0410

            TOTAL IN =      139803.5938              TOTAL IN =         878.7695

          OUT:                                     OUT:
          ----                                     ----
             STORAGE =           0.5783               STORAGE =           0.0000
       CONSTANT HEAD =           0.0000         CONSTANT HEAD =           0.0000
               WELLS =       26100.0000                 WELLS =         300.0000
     HEAD DEP BOUNDS =      113700.9219       HEAD DEP BOUNDS =         578.7590

           TOTAL OUT =      139801.5000             TOTAL OUT =         878.7590

            IN - OUT =           2.0938              IN - OUT =       1.0437E-02

 PERCENT DISCREPANCY =           0.00     PERCENT DISCREPANCY =           0.00






          TIME SUMMARY AT END OF TIME STEP  87 IN STRESS PERIOD    3
                    SECONDS     MINUTES      HOURS       DAYS        YEARS
                    -----------------------------------------------------------
   TIME STEP LENGTH  86400.      1440.0      24.000      1.0000     2.73785E-03
 STRESS PERIOD TIME 7.51680E+06 1.25280E+05  2088.0      87.000     0.23819    
         TOTAL TIME 1.62432E+07 2.70720E+05  4512.0      188.00     0.51472    
1
 
 SOLVING FOR HEAD 

 OUTPUT CONTROL FOR STRESS PERIOD    3   TIME STEP  88
    SAVE HEAD FOR ALL LAYERS
    SAVE DRAWDOWN FOR ALL LAYERS
    SAVE BUDGET
    PRINT HEAD FOR ALL LAYERS
    PRINT BUDGET
 UBDSV1 SAVING "         STORAGE" ON UNIT  53 AT TIME STEP 88, STRESS PERIOD   3
 UBDSV2 SAVING "   CONSTANT HEAD" ON UNIT  53 AT TIME STEP 88, STRESS PERIOD   3
 UBDSV1 SAVING "FLOW RIGHT FACE " ON UNIT  53 AT TIME STEP 88, STRESS PERIOD   3
 UBDSV1 SAVING "FLOW FRONT FACE " ON UNIT  53 AT TIME STEP 88, STRESS PERIOD   3
1
              HEAD IN LAYER   1 AT END OF TIME STEP  88 IN STRESS PERIOD    3
  ---------------------------------------------------------------------------

            1           2           3           4           5           6           7           8           9          10
 ........................................................................................................................
   1    9.989       8.907       7.805       6.693       5.587       4.500       3.416       2.313       1.179      1.1809E-02
   2    9.989       8.885       7.758       6.614       5.487       4.418       3.363       2.284       1.167      1.1684E-02
   3    9.989       8.845       7.661       6.439       5.239       4.234       3.256       2.230       1.144      1.1462E-02
   4    9.988       8.796       7.530       6.146       4.695       3.929       3.111       2.166       1.120      1.1220E-02
   5    9.988       8.768       7.433       5.806       3.334       3.574       3.004       2.130       1.109      1.1102E-02
   6    9.988       8.797       7.533       6.149       4.699       3.932       3.114       2.168       1.121      1.1229E-02
   7    9.989       8.848       7.668       6.447       5.249       4.243       3.263       2.234       1.147      1.1484E-02
   8    9.989       8.893       7.772       6.634       5.509       4.439       3.379       2.295       1.172      1.1735E-02
   9    9.989       8.922       7.836       6.737       5.636       4.545       3.450       2.335       1.189      1.1912E-02
  10    9.990       8.936       7.865       6.781       5.688       4.591       3.483       2.354       1.198      1.2001E-02

 HEAD WILL BE SAVED ON UNIT   51 AT END OF TIME STEP  88, STRESS PERIOD    3

 DRAWDOWN WILL BE SAVED ON UNIT   52 AT END OF TIME STEP  88, STRESS PERIOD    3
1
  VOLUMETRIC BUDGET FOR ENTIRE MODEL AT END OF TIME STEP 88 IN STRESS PERIOD   3
  ------------------------------------------------------------------------------

     CUMULATIVE VOLUMES      L**3       RATES FOR THIS TIME STEP      L**3/T
     ------------------                 ------------------------

           IN:                                      IN:
           ---                                      ---
             STORAGE =       23181.2402               STORAGE =         207.4088
       CONSTANT HEAD =           0.0000         CONSTANT HEAD =           0.0000
               WELLS =           0.0000                 WELLS =           0.0000
     HEAD DEP BOUNDS =      117500.5547       HEAD DEP BOUNDS =         670.7938

            TOTAL IN =      140681.7969              TOTAL IN =         878.2026

          OUT:                                     OUT:
          ----                                     ----
             STORAGE =           0.5783               STORAGE =           0.0000
       CONSTANT HEAD =           0.0000         CONSTANT HEAD =           0.0000
               WELLS =       26400.0000                 WELLS =         300.0000
     HEAD DEP BOUNDS =      114279.1094       HEAD DEP BOUNDS =         578.1904

           TOTAL OUT =      140679.6875             TOTAL OUT =         878.1904

            IN - OUT =           2.1094              IN - OUT =       1.2146E-02

 PERCENT DISCREPANCY =           0.00     PERCENT DISCREPANCY =           0.00






          TIME SUMMARY AT END OF TIME STEP  88 IN STRESS PERIOD    3
                    SECONDS     MINUTES      HOURS       DAYS        YEARS
                    -----------------------------------------------------------
   TIME STEP LENGTH  86400.      1440.0      24.000      1.0000     2.73785E-03
 STRESS PERIOD TIME 7.60320E+06 1.26720E+05  2112.0      88.000     0.24093    
         TOTAL TIME 1.63296E+07 2.72160E+05  4536.0      189.00     0.51745    
1
 
 SOLVING FOR HEAD 

 OUTPUT CONTROL FOR STRESS PERIOD    3   TIME STEP  89
    SAVE HEAD FOR ALL LAYERS
    SAVE DRAWDOWN FOR ALL LAYERS
    SAVE BUDGET
    PRINT HEAD FOR ALL LAYERS
    PRINT BUDGET
 UBDSV1 SAVING "         STORAGE" ON UNIT  53 AT TIME STEP 89, STRESS PERIOD   3
 UBDSV2 SAVING "   CONSTANT HEAD" ON UNIT  53 AT TIME STEP 89, STRESS PERIOD   3
 UBDSV1 SAVING "FLOW RIGHT FACE " ON UNIT  53 AT TIME STEP 89, STRESS PERIOD   3
 UBDSV1 SAVING "FLOW FRONT FACE " ON UNIT  53 AT TIME STEP 89, STRESS PERIOD   3
1
              HEAD IN LAYER   1 AT END OF TIME STEP  89 IN STRESS PERIOD    3
  ---------------------------------------------------------------------------

            1           2           3           4           5           6           7           8           9          10
 ........................................................................................................................
   1    9.989       8.905       7.803       6.690       5.584       4.497       3.414       2.311       1.178      1.1799E-02
   2    9.989       8.884       7.755       6.611       5.483       4.414       3.360       2.282       1.165      1.1673E-02
   3    9.989       8.843       7.659       6.435       5.235       4.230       3.252       2.227       1.143      1.1448E-02
   4    9.988       8.795       7.527       6.142       4.690       3.924       3.107       2.163       1.119      1.1206E-02
   5    9.988       8.766       7.430       5.801       3.329       3.569       3.000       2.127       1.107      1.1087E-02
   6    9.988       8.796       7.530       6.145       4.694       3.928       3.110       2.165       1.120      1.1214E-02
   7    9.989       8.847       7.665       6.444       5.245       4.240       3.260       2.232       1.145      1.1472E-02
   8    9.989       8.892       7.770       6.632       5.506       4.435       3.376       2.293       1.171      1.1725E-02
   9    9.989       8.921       7.834       6.734       5.634       4.543       3.448       2.333       1.188      1.1905E-02
  10    9.990       8.935       7.864       6.779       5.686       4.589       3.481       2.353       1.197      1.1994E-02

 HEAD WILL BE SAVED ON UNIT   51 AT END OF TIME STEP  89, STRESS PERIOD    3

 DRAWDOWN WILL BE SAVED ON UNIT   52 AT END OF TIME STEP  89, STRESS PERIOD    3
1
  VOLUMETRIC BUDGET FOR ENTIRE MODEL AT END OF TIME STEP 89 IN STRESS PERIOD   3
  ------------------------------------------------------------------------------

     CUMULATIVE VOLUMES      L**3       RATES FOR THIS TIME STEP      L**3/T
     ------------------                 ------------------------

           IN:                                      IN:
           ---                                      ---
             STORAGE =       23387.3379               STORAGE =         206.0971
       CONSTANT HEAD =           0.0000         CONSTANT HEAD =           0.0000
               WELLS =           0.0000                 WELLS =           0.0000
     HEAD DEP BOUNDS =      118172.0781       HEAD DEP BOUNDS =         671.5220

            TOTAL IN =      141559.4219              TOTAL IN =         877.6191

          OUT:                                     OUT:
          ----                                     ----
             STORAGE =           0.5783               STORAGE =           0.0000
       CONSTANT HEAD =           0.0000         CONSTANT HEAD =           0.0000
               WELLS =       26700.0000                 WELLS =         300.0000
     HEAD DEP BOUNDS =      114856.7266       HEAD DEP BOUNDS =         577.6199

           TOTAL OUT =      141557.3125             TOTAL OUT =         877.6199

            IN - OUT =           2.1094              IN - OUT =      -8.5449E-04

 PERCENT DISCREPANCY =           0.00     PERCENT DISCREPANCY =           0.00






          TIME SUMMARY AT END OF TIME STEP  89 IN STRESS PERIOD    3
                    SECONDS     MINUTES      HOURS       DAYS        YEARS
                    -----------------------------------------------------------
   TIME STEP LENGTH  86400.      1440.0      24.000      1.0000     2.73785E-03
 STRESS PERIOD TIME 7.68960E+06 1.28160E+05  2136.0      89.000     0.24367    
         TOTAL TIME 1.64160E+07 2.73600E+05  4560.0      190.00     0.52019    
1
 
 SOLVING FOR HEAD 

 OUTPUT CONTROL FOR STRESS PERIOD    3   TIME STEP  90
    SAVE HEAD FOR ALL LAYERS
    SAVE DRAWDOWN FOR ALL LAYERS
    SAVE BUDGET
    PRINT HEAD FOR ALL LAYERS
    PRINT BUDGET
 UBDSV1 SAVING "         STORAGE" ON UNIT  53 AT TIME STEP 90, STRESS PERIOD   3
 UBDSV2 SAVING "   CONSTANT HEAD" ON UNIT  53 AT TIME STEP 90, STRESS PERIOD   3
 UBDSV1 SAVING "FLOW RIGHT FACE " ON UNIT  53 AT TIME STEP 90, STRESS PERIOD   3
 UBDSV1 SAVING "FLOW FRONT FACE " ON UNIT  53 AT TIME STEP 90, STRESS PERIOD   3
1
              HEAD IN LAYER   1 AT END OF TIME STEP  90 IN STRESS PERIOD    3
  ---------------------------------------------------------------------------

            1           2           3           4           5           6           7           8           9          10
 ........................................................................................................................
   1    9.989       8.904       7.801       6.688       5.581       4.494       3.411       2.309       1.177      1.1789E-02
   2    9.989       8.883       7.753       6.608       5.479       4.411       3.357       2.280       1.164      1.1662E-02
   3    9.989       8.842       7.656       6.431       5.231       4.226       3.249       2.225       1.142      1.1436E-02
   4    9.988       8.793       7.524       6.137       4.686       3.920       3.103       2.161       1.118      1.1191E-02
   5    9.988       8.764       7.427       5.797       3.324       3.565       2.996       2.124       1.106      1.1072E-02
   6    9.988       8.794       7.527       6.141       4.689       3.923       3.106       2.162       1.118      1.1200E-02
   7    9.989       8.845       7.663       6.440       5.241       4.236       3.256       2.230       1.144      1.1460E-02
   8    9.989       8.891       7.768       6.629       5.503       4.432       3.374       2.291       1.170      1.1716E-02
   9    9.989       8.920       7.833       6.732       5.631       4.541       3.446       2.332       1.188      1.1898E-02
  10    9.990       8.935       7.863       6.777       5.684       4.587       3.480       2.352       1.197      1.1988E-02

 HEAD WILL BE SAVED ON UNIT   51 AT END OF TIME STEP  90, STRESS PERIOD    3

 DRAWDOWN WILL BE SAVED ON UNIT   52 AT END OF TIME STEP  90, STRESS PERIOD    3
1
  VOLUMETRIC BUDGET FOR ENTIRE MODEL AT END OF TIME STEP 90 IN STRESS PERIOD   3
  ------------------------------------------------------------------------------

     CUMULATIVE VOLUMES      L**3       RATES FOR THIS TIME STEP      L**3/T
     ------------------                 ------------------------

           IN:                                      IN:
           ---                                      ---
             STORAGE =       23592.1328               STORAGE =         204.7953
       CONSTANT HEAD =           0.0000         CONSTANT HEAD =           0.0000
               WELLS =           0.0000                 WELLS =           0.0000
     HEAD DEP BOUNDS =      118844.3281       HEAD DEP BOUNDS =         672.2519

            TOTAL IN =      142436.4688              TOTAL IN =         877.0472

          OUT:                                     OUT:
          ----                                     ----
             STORAGE =           0.5783               STORAGE =           0.0000
       CONSTANT HEAD =           0.0000         CONSTANT HEAD =           0.0000
               WELLS =       27000.0000                 WELLS =         300.0000
     HEAD DEP BOUNDS =      115433.7812       HEAD DEP BOUNDS =         577.0518

           TOTAL OUT =      142434.3594             TOTAL OUT =         877.0518

            IN - OUT =           2.1094              IN - OUT =      -4.5776E-03

 PERCENT DISCREPANCY =           0.00     PERCENT DISCREPANCY =           0.00






          TIME SUMMARY AT END OF TIME STEP  90 IN STRESS PERIOD    3
                    SECONDS     MINUTES      HOURS       DAYS        YEARS
                    -----------------------------------------------------------
   TIME STEP LENGTH  86400.      1440.0      24.000      1.0000     2.73785E-03
 STRESS PERIOD TIME 7.77600E+06 1.29600E+05  2160.0      90.000     0.24641    
         TOTAL TIME 1.65024E+07 2.75040E+05  4584.0      191.00     0.52293    
1
 
 SOLVING FOR HEAD 

 OUTPUT CONTROL FOR STRESS PERIOD    3   TIME STEP  91
    SAVE HEAD FOR ALL LAYERS
    SAVE DRAWDOWN FOR ALL LAYERS
    SAVE BUDGET
    PRINT HEAD FOR ALL LAYERS
    PRINT BUDGET
 UBDSV1 SAVING "         STORAGE" ON UNIT  53 AT TIME STEP 91, STRESS PERIOD   3
 UBDSV2 SAVING "   CONSTANT HEAD" ON UNIT  53 AT TIME STEP 91, STRESS PERIOD   3
 UBDSV1 SAVING "FLOW RIGHT FACE " ON UNIT  53 AT TIME STEP 91, STRESS PERIOD   3
 UBDSV1 SAVING "FLOW FRONT FACE " ON UNIT  53 AT TIME STEP 91, STRESS PERIOD   3
1
              HEAD IN LAYER   1 AT END OF TIME STEP  91 IN STRESS PERIOD    3
  ---------------------------------------------------------------------------

            1           2           3           4           5           6           7           8           9          10
 ........................................................................................................................
   1    9.989       8.903       7.799       6.685       5.577       4.491       3.408       2.307       1.176      1.1779E-02
   2    9.989       8.881       7.750       6.605       5.476       4.407       3.354       2.278       1.163      1.1650E-02
   3    9.989       8.841       7.653       6.428       5.227       4.222       3.245       2.222       1.141      1.1423E-02
   4    9.988       8.791       7.521       6.133       4.681       3.915       3.099       2.158       1.116      1.1177E-02
   5    9.988       8.763       7.423       5.793       3.319       3.560       2.992       2.121       1.104      1.1057E-02
   6    9.988       8.793       7.524       6.137       4.685       3.919       3.102       2.160       1.117      1.1186E-02
   7    9.989       8.844       7.660       6.437       5.237       4.232       3.253       2.228       1.143      1.1447E-02
   8    9.989       8.889       7.766       6.626       5.500       4.429       3.371       2.289       1.169      1.1706E-02
   9    9.989       8.920       7.831       6.730       5.629       4.538       3.444       2.331       1.187      1.1890E-02
  10    9.990       8.934       7.861       6.775       5.682       4.586       3.478       2.351       1.196      1.1982E-02

 HEAD WILL BE SAVED ON UNIT   51 AT END OF TIME STEP  91, STRESS PERIOD    3

 DRAWDOWN WILL BE SAVED ON UNIT   52 AT END OF TIME STEP  91, STRESS PERIOD    3
1
  VOLUMETRIC BUDGET FOR ENTIRE MODEL AT END OF TIME STEP 91 IN STRESS PERIOD   3
  ------------------------------------------------------------------------------

     CUMULATIVE VOLUMES      L**3       RATES FOR THIS TIME STEP      L**3/T
     ------------------                 ------------------------

           IN:                                      IN:
           ---                                      ---
             STORAGE =       23795.6270               STORAGE =         203.4947
       CONSTANT HEAD =           0.0000         CONSTANT HEAD =           0.0000
               WELLS =           0.0000                 WELLS =           0.0000
     HEAD DEP BOUNDS =      119517.3203       HEAD DEP BOUNDS =         672.9903

            TOTAL IN =      143312.9531              TOTAL IN =         876.4850

          OUT:                                     OUT:
          ----                                     ----
             STORAGE =           0.5783               STORAGE =           0.0000
       CONSTANT HEAD =           0.0000         CONSTANT HEAD =           0.0000
               WELLS =       27300.0000                 WELLS =         300.0000
     HEAD DEP BOUNDS =      116010.2656       HEAD DEP BOUNDS =         576.4829

           TOTAL OUT =      143310.8438             TOTAL OUT =         876.4829

            IN - OUT =           2.1094              IN - OUT =       2.0752E-03

 PERCENT DISCREPANCY =           0.00     PERCENT DISCREPANCY =           0.00






          TIME SUMMARY AT END OF TIME STEP  91 IN STRESS PERIOD    3
                    SECONDS     MINUTES      HOURS       DAYS        YEARS
                    -----------------------------------------------------------
   TIME STEP LENGTH  86400.      1440.0      24.000      1.0000     2.73785E-03
 STRESS PERIOD TIME 7.86240E+06 1.31040E+05  2184.0      91.000     0.24914    
         TOTAL TIME 1.65888E+07 2.76480E+05  4608.0      192.00     0.52567    
1
 
 SOLVING FOR HEAD 

 OUTPUT CONTROL FOR STRESS PERIOD    3   TIME STEP  92
    SAVE HEAD FOR ALL LAYERS
    SAVE DRAWDOWN FOR ALL LAYERS
    SAVE BUDGET
    PRINT HEAD FOR ALL LAYERS
    PRINT BUDGET
 UBDSV1 SAVING "         STORAGE" ON UNIT  53 AT TIME STEP 92, STRESS PERIOD   3
 UBDSV2 SAVING "   CONSTANT HEAD" ON UNIT  53 AT TIME STEP 92, STRESS PERIOD   3
 UBDSV1 SAVING "FLOW RIGHT FACE " ON UNIT  53 AT TIME STEP 92, STRESS PERIOD   3
 UBDSV1 SAVING "FLOW FRONT FACE " ON UNIT  53 AT TIME STEP 92, STRESS PERIOD   3
1
              HEAD IN LAYER   1 AT END OF TIME STEP  92 IN STRESS PERIOD    3
  ---------------------------------------------------------------------------

            1           2           3           4           5           6           7           8           9          10
 ........................................................................................................................
   1    9.989       8.902       7.797       6.682       5.574       4.488       3.406       2.306       1.175      1.1769E-02
   2    9.989       8.880       7.748       6.601       5.472       4.404       3.351       2.276       1.162      1.1639E-02
   3    9.989       8.839       7.650       6.424       5.223       4.218       3.242       2.220       1.139      1.1409E-02
   4    9.988       8.790       7.518       6.129       4.676       3.911       3.096       2.155       1.115      1.1162E-02
   5    9.988       8.761       7.420       5.789       3.314       3.555       2.988       2.119       1.103      1.1042E-02
   6    9.988       8.791       7.521       6.133       4.680       3.914       3.099       2.157       1.116      1.1172E-02
   7    9.989       8.843       7.658       6.434       5.234       4.228       3.250       2.225       1.142      1.1436E-02
   8    9.989       8.888       7.764       6.623       5.497       4.426       3.369       2.287       1.168      1.1696E-02
   9    9.989       8.919       7.830       6.728       5.627       4.536       3.443       2.329       1.186      1.1883E-02
  10    9.990       8.933       7.860       6.774       5.680       4.584       3.477       2.349       1.195      1.1976E-02

 HEAD WILL BE SAVED ON UNIT   51 AT END OF TIME STEP  92, STRESS PERIOD    3

 DRAWDOWN WILL BE SAVED ON UNIT   52 AT END OF TIME STEP  92, STRESS PERIOD    3
1
  VOLUMETRIC BUDGET FOR ENTIRE MODEL AT END OF TIME STEP 92 IN STRESS PERIOD   3
  ------------------------------------------------------------------------------

     CUMULATIVE VOLUMES      L**3       RATES FOR THIS TIME STEP      L**3/T
     ------------------                 ------------------------

           IN:                                      IN:
           ---                                      ---
             STORAGE =       23997.8320               STORAGE =         202.2059
       CONSTANT HEAD =           0.0000         CONSTANT HEAD =           0.0000
               WELLS =           0.0000                 WELLS =           0.0000
     HEAD DEP BOUNDS =      120191.0234       HEAD DEP BOUNDS =         673.7042

            TOTAL IN =      144188.8594              TOTAL IN =         875.9100

          OUT:                                     OUT:
          ----                                     ----
             STORAGE =           0.5783               STORAGE =           0.0000
       CONSTANT HEAD =           0.0000         CONSTANT HEAD =           0.0000
               WELLS =       27600.0000                 WELLS =         300.0000
     HEAD DEP BOUNDS =      116586.1875       HEAD DEP BOUNDS =         575.9183

           TOTAL OUT =      144186.7656             TOTAL OUT =         875.9183

            IN - OUT =           2.0938              IN - OUT =      -8.3008E-03

 PERCENT DISCREPANCY =           0.00     PERCENT DISCREPANCY =           0.00






          TIME SUMMARY AT END OF TIME STEP  92 IN STRESS PERIOD    3
                    SECONDS     MINUTES      HOURS       DAYS        YEARS
                    -----------------------------------------------------------
   TIME STEP LENGTH  86400.      1440.0      24.000      1.0000     2.73785E-03
 STRESS PERIOD TIME 7.94880E+06 1.32480E+05  2208.0      92.000     0.25188    
         TOTAL TIME 1.66752E+07 2.77920E+05  4632.0      193.00     0.52841    
1
 
 SOLVING FOR HEAD 

 OUTPUT CONTROL FOR STRESS PERIOD    3   TIME STEP  93
    SAVE HEAD FOR ALL LAYERS
    SAVE DRAWDOWN FOR ALL LAYERS
    SAVE BUDGET
    PRINT HEAD FOR ALL LAYERS
    PRINT BUDGET
 UBDSV1 SAVING "         STORAGE" ON UNIT  53 AT TIME STEP 93, STRESS PERIOD   3
 UBDSV2 SAVING "   CONSTANT HEAD" ON UNIT  53 AT TIME STEP 93, STRESS PERIOD   3
 UBDSV1 SAVING "FLOW RIGHT FACE " ON UNIT  53 AT TIME STEP 93, STRESS PERIOD   3
 UBDSV1 SAVING "FLOW FRONT FACE " ON UNIT  53 AT TIME STEP 93, STRESS PERIOD   3
1
              HEAD IN LAYER   1 AT END OF TIME STEP  93 IN STRESS PERIOD    3
  ---------------------------------------------------------------------------

            1           2           3           4           5           6           7           8           9          10
 ........................................................................................................................
   1    9.989       8.901       7.795       6.679       5.571       4.485       3.403       2.304       1.174      1.1758E-02
   2    9.989       8.879       7.746       6.598       5.469       4.400       3.348       2.273       1.161      1.1628E-02
   3    9.989       8.838       7.648       6.420       5.219       4.214       3.239       2.218       1.138      1.1397E-02
   4    9.988       8.788       7.515       6.125       4.672       3.906       3.092       2.152       1.113      1.1148E-02
   5    9.988       8.760       7.417       5.784       3.309       3.551       2.984       2.116       1.101      1.1027E-02
   6    9.988       8.790       7.518       6.129       4.676       3.910       3.095       2.154       1.114      1.1158E-02
   7    9.989       8.842       7.655       6.430       5.230       4.224       3.247       2.223       1.141      1.1423E-02
   8    9.989       8.887       7.762       6.621       5.494       4.424       3.366       2.285       1.167      1.1687E-02
   9    9.989       8.918       7.828       6.726       5.624       4.534       3.441       2.328       1.185      1.1875E-02
  10    9.990       8.932       7.859       6.772       5.678       4.582       3.475       2.348       1.195      1.1970E-02

 HEAD WILL BE SAVED ON UNIT   51 AT END OF TIME STEP  93, STRESS PERIOD    3

 DRAWDOWN WILL BE SAVED ON UNIT   52 AT END OF TIME STEP  93, STRESS PERIOD    3
1
  VOLUMETRIC BUDGET FOR ENTIRE MODEL AT END OF TIME STEP 93 IN STRESS PERIOD   3
  ------------------------------------------------------------------------------

     CUMULATIVE VOLUMES      L**3       RATES FOR THIS TIME STEP      L**3/T
     ------------------                 ------------------------

           IN:                                      IN:
           ---                                      ---
             STORAGE =       24198.7578               STORAGE =         200.9261
       CONSTANT HEAD =           0.0000         CONSTANT HEAD =           0.0000
               WELLS =           0.0000                 WELLS =           0.0000
     HEAD DEP BOUNDS =      120865.4609       HEAD DEP BOUNDS =         674.4398

            TOTAL IN =      145064.2188              TOTAL IN =         875.3660

          OUT:                                     OUT:
          ----                                     ----
             STORAGE =           0.5783               STORAGE =           0.0000
       CONSTANT HEAD =           0.0000         CONSTANT HEAD =           0.0000
               WELLS =       27900.0000                 WELLS =         300.0000
     HEAD DEP BOUNDS =      117161.5391       HEAD DEP BOUNDS =         575.3522

           TOTAL OUT =      145062.1250             TOTAL OUT =         875.3522

            IN - OUT =           2.0938              IN - OUT =       1.3794E-02

 PERCENT DISCREPANCY =           0.00     PERCENT DISCREPANCY =           0.00






          TIME SUMMARY AT END OF TIME STEP  93 IN STRESS PERIOD    3
                    SECONDS     MINUTES      HOURS       DAYS        YEARS
                    -----------------------------------------------------------
   TIME STEP LENGTH  86400.      1440.0      24.000      1.0000     2.73785E-03
 STRESS PERIOD TIME 8.03520E+06 1.33920E+05  2232.0      93.000     0.25462    
         TOTAL TIME 1.67616E+07 2.79360E+05  4656.0      194.00     0.53114    
1
 
 SOLVING FOR HEAD 

 OUTPUT CONTROL FOR STRESS PERIOD    3   TIME STEP  94
    SAVE HEAD FOR ALL LAYERS
    SAVE DRAWDOWN FOR ALL LAYERS
    SAVE BUDGET
    PRINT HEAD FOR ALL LAYERS
    PRINT BUDGET
 UBDSV1 SAVING "         STORAGE" ON UNIT  53 AT TIME STEP 94, STRESS PERIOD   3
 UBDSV2 SAVING "   CONSTANT HEAD" ON UNIT  53 AT TIME STEP 94, STRESS PERIOD   3
 UBDSV1 SAVING "FLOW RIGHT FACE " ON UNIT  53 AT TIME STEP 94, STRESS PERIOD   3
 UBDSV1 SAVING "FLOW FRONT FACE " ON UNIT  53 AT TIME STEP 94, STRESS PERIOD   3
1
              HEAD IN LAYER   1 AT END OF TIME STEP  94 IN STRESS PERIOD    3
  ---------------------------------------------------------------------------

            1           2           3           4           5           6           7           8           9          10
 ........................................................................................................................
   1    9.989       8.900       7.793       6.676       5.568       4.481       3.400       2.302       1.173      1.1748E-02
   2    9.989       8.878       7.743       6.595       5.465       4.397       3.345       2.271       1.160      1.1616E-02
   3    9.989       8.836       7.645       6.417       5.215       4.210       3.235       2.215       1.137      1.1384E-02
   4    9.988       8.787       7.512       6.121       4.667       3.902       3.088       2.150       1.112      1.1133E-02
   5    9.988       8.758       7.414       5.780       3.305       3.546       2.980       2.113       1.100      1.1012E-02
   6    9.988       8.788       7.515       6.125       4.672       3.906       3.091       2.152       1.113      1.1144E-02
   7    9.989       8.840       7.653       6.427       5.226       4.221       3.244       2.221       1.139      1.1411E-02
   8    9.989       8.886       7.760       6.618       5.491       4.421       3.364       2.284       1.166      1.1677E-02
   9    9.989       8.917       7.827       6.724       5.622       4.531       3.439       2.326       1.185      1.1868E-02
  10    9.990       8.932       7.857       6.770       5.676       4.580       3.473       2.347       1.194      1.1963E-02

 HEAD WILL BE SAVED ON UNIT   51 AT END OF TIME STEP  94, STRESS PERIOD    3

 DRAWDOWN WILL BE SAVED ON UNIT   52 AT END OF TIME STEP  94, STRESS PERIOD    3
1
  VOLUMETRIC BUDGET FOR ENTIRE MODEL AT END OF TIME STEP 94 IN STRESS PERIOD   3
  ------------------------------------------------------------------------------

     CUMULATIVE VOLUMES      L**3       RATES FOR THIS TIME STEP      L**3/T
     ------------------                 ------------------------

           IN:                                      IN:
           ---                                      ---
             STORAGE =       24398.3965               STORAGE =         199.6395
       CONSTANT HEAD =           0.0000         CONSTANT HEAD =           0.0000
               WELLS =           0.0000                 WELLS =           0.0000
     HEAD DEP BOUNDS =      121540.6016       HEAD DEP BOUNDS =         675.1441

            TOTAL IN =      145939.0000              TOTAL IN =         874.7836

          OUT:                                     OUT:
          ----                                     ----
             STORAGE =           0.5783               STORAGE =           0.0000
       CONSTANT HEAD =           0.0000         CONSTANT HEAD =           0.0000
               WELLS =       28200.0000                 WELLS =         300.0000
     HEAD DEP BOUNDS =      117736.3281       HEAD DEP BOUNDS =         574.7870

           TOTAL OUT =      145936.9062             TOTAL OUT =         874.7870

            IN - OUT =           2.0938              IN - OUT =      -3.4180E-03

 PERCENT DISCREPANCY =           0.00     PERCENT DISCREPANCY =           0.00






          TIME SUMMARY AT END OF TIME STEP  94 IN STRESS PERIOD    3
                    SECONDS     MINUTES      HOURS       DAYS        YEARS
                    -----------------------------------------------------------
   TIME STEP LENGTH  86400.      1440.0      24.000      1.0000     2.73785E-03
 STRESS PERIOD TIME 8.12160E+06 1.35360E+05  2256.0      94.000     0.25736    
         TOTAL TIME 1.68480E+07 2.80800E+05  4680.0      195.00     0.53388    
1
 
 SOLVING FOR HEAD 

 OUTPUT CONTROL FOR STRESS PERIOD    3   TIME STEP  95
    SAVE HEAD FOR ALL LAYERS
    SAVE DRAWDOWN FOR ALL LAYERS
    SAVE BUDGET
    PRINT HEAD FOR ALL LAYERS
    PRINT BUDGET
 UBDSV1 SAVING "         STORAGE" ON UNIT  53 AT TIME STEP 95, STRESS PERIOD   3
 UBDSV2 SAVING "   CONSTANT HEAD" ON UNIT  53 AT TIME STEP 95, STRESS PERIOD   3
 UBDSV1 SAVING "FLOW RIGHT FACE " ON UNIT  53 AT TIME STEP 95, STRESS PERIOD   3
 UBDSV1 SAVING "FLOW FRONT FACE " ON UNIT  53 AT TIME STEP 95, STRESS PERIOD   3
1
              HEAD IN LAYER   1 AT END OF TIME STEP  95 IN STRESS PERIOD    3
  ---------------------------------------------------------------------------

            1           2           3           4           5           6           7           8           9          10
 ........................................................................................................................
   1    9.989       8.899       7.790       6.673       5.564       4.478       3.398       2.300       1.172      1.1738E-02
   2    9.989       8.876       7.741       6.592       5.462       4.393       3.342       2.269       1.159      1.1605E-02
   3    9.989       8.835       7.642       6.413       5.211       4.206       3.232       2.213       1.135      1.1371E-02
   4    9.988       8.785       7.509       6.117       4.663       3.897       3.084       2.147       1.110      1.1119E-02
   5    9.988       8.756       7.411       5.776       3.300       3.541       2.977       2.110       1.098      1.0998E-02
   6    9.988       8.787       7.512       6.121       4.667       3.901       3.088       2.149       1.112      1.1130E-02
   7    9.989       8.839       7.650       6.424       5.222       4.217       3.241       2.219       1.138      1.1400E-02
   8    9.989       8.885       7.758       6.615       5.488       4.418       3.361       2.282       1.165      1.1667E-02
   9    9.989       8.916       7.825       6.722       5.619       4.529       3.437       2.325       1.184      1.1860E-02
  10    9.990       8.931       7.856       6.768       5.674       4.578       3.472       2.346       1.194      1.1957E-02

 HEAD WILL BE SAVED ON UNIT   51 AT END OF TIME STEP  95, STRESS PERIOD    3

 DRAWDOWN WILL BE SAVED ON UNIT   52 AT END OF TIME STEP  95, STRESS PERIOD    3
1
  VOLUMETRIC BUDGET FOR ENTIRE MODEL AT END OF TIME STEP 95 IN STRESS PERIOD   3
  ------------------------------------------------------------------------------

     CUMULATIVE VOLUMES      L**3       RATES FOR THIS TIME STEP      L**3/T
     ------------------                 ------------------------

           IN:                                      IN:
           ---                                      ---
             STORAGE =       24596.7695               STORAGE =         198.3723
       CONSTANT HEAD =           0.0000         CONSTANT HEAD =           0.0000
               WELLS =           0.0000                 WELLS =           0.0000
     HEAD DEP BOUNDS =      122216.4531       HEAD DEP BOUNDS =         675.8504

            TOTAL IN =      146813.2188              TOTAL IN =         874.2228

          OUT:                                     OUT:
          ----                                     ----
             STORAGE =           0.5783               STORAGE =           0.0000
       CONSTANT HEAD =           0.0000         CONSTANT HEAD =           0.0000
               WELLS =       28500.0000                 WELLS =         300.0000
     HEAD DEP BOUNDS =      118310.5547       HEAD DEP BOUNDS =         574.2247

           TOTAL OUT =      146811.1250             TOTAL OUT =         874.2247

            IN - OUT =           2.0938              IN - OUT =      -1.8921E-03

 PERCENT DISCREPANCY =           0.00     PERCENT DISCREPANCY =           0.00






          TIME SUMMARY AT END OF TIME STEP  95 IN STRESS PERIOD    3
                    SECONDS     MINUTES      HOURS       DAYS        YEARS
                    -----------------------------------------------------------
   TIME STEP LENGTH  86400.      1440.0      24.000      1.0000     2.73785E-03
 STRESS PERIOD TIME 8.20800E+06 1.36800E+05  2280.0      95.000     0.26010    
         TOTAL TIME 1.69344E+07 2.82240E+05  4704.0      196.00     0.53662    
1
 
 SOLVING FOR HEAD 

 OUTPUT CONTROL FOR STRESS PERIOD    3   TIME STEP  96
    SAVE HEAD FOR ALL LAYERS
    SAVE DRAWDOWN FOR ALL LAYERS
    SAVE BUDGET
    PRINT HEAD FOR ALL LAYERS
    PRINT BUDGET
 UBDSV1 SAVING "         STORAGE" ON UNIT  53 AT TIME STEP 96, STRESS PERIOD   3
 UBDSV2 SAVING "   CONSTANT HEAD" ON UNIT  53 AT TIME STEP 96, STRESS PERIOD   3
 UBDSV1 SAVING "FLOW RIGHT FACE " ON UNIT  53 AT TIME STEP 96, STRESS PERIOD   3
 UBDSV1 SAVING "FLOW FRONT FACE " ON UNIT  53 AT TIME STEP 96, STRESS PERIOD   3
1
              HEAD IN LAYER   1 AT END OF TIME STEP  96 IN STRESS PERIOD    3
  ---------------------------------------------------------------------------

            1           2           3           4           5           6           7           8           9          10
 ........................................................................................................................
   1    9.989       8.897       7.788       6.670       5.561       4.475       3.395       2.298       1.171      1.1728E-02
   2    9.989       8.875       7.739       6.589       5.458       4.390       3.339       2.267       1.158      1.1594E-02
   3    9.989       8.834       7.640       6.410       5.207       4.202       3.229       2.210       1.134      1.1358E-02
   4    9.988       8.784       7.507       6.114       4.658       3.893       3.081       2.144       1.109      1.1105E-02
   5    9.988       8.755       7.408       5.772       3.295       3.537       2.973       2.108       1.097      1.0983E-02
   6    9.988       8.785       7.510       6.118       4.663       3.897       3.084       2.147       1.110      1.1116E-02
   7    9.989       8.838       7.648       6.420       5.219       4.214       3.237       2.216       1.137      1.1388E-02
   8    9.989       8.884       7.756       6.613       5.485       4.415       3.359       2.280       1.164      1.1658E-02
   9    9.989       8.915       7.823       6.720       5.617       4.527       3.435       2.324       1.183      1.1853E-02
  10    9.990       8.930       7.855       6.766       5.672       4.576       3.470       2.345       1.193      1.1951E-02

 HEAD WILL BE SAVED ON UNIT   51 AT END OF TIME STEP  96, STRESS PERIOD    3

 DRAWDOWN WILL BE SAVED ON UNIT   52 AT END OF TIME STEP  96, STRESS PERIOD    3
1
  VOLUMETRIC BUDGET FOR ENTIRE MODEL AT END OF TIME STEP 96 IN STRESS PERIOD   3
  ------------------------------------------------------------------------------

     CUMULATIVE VOLUMES      L**3       RATES FOR THIS TIME STEP      L**3/T
     ------------------                 ------------------------

           IN:                                      IN:
           ---                                      ---
             STORAGE =       24793.8770               STORAGE =         197.1082
       CONSTANT HEAD =           0.0000         CONSTANT HEAD =           0.0000
               WELLS =           0.0000                 WELLS =           0.0000
     HEAD DEP BOUNDS =      122893.0000       HEAD DEP BOUNDS =         676.5453

            TOTAL IN =      147686.8750              TOTAL IN =         873.6536

          OUT:                                     OUT:
          ----                                     ----
             STORAGE =           0.5783               STORAGE =           0.0000
       CONSTANT HEAD =           0.0000         CONSTANT HEAD =           0.0000
               WELLS =       28800.0000                 WELLS =         300.0000
     HEAD DEP BOUNDS =      118884.2188       HEAD DEP BOUNDS =         573.6643

           TOTAL OUT =      147684.7969             TOTAL OUT =         873.6643

            IN - OUT =           2.0781              IN - OUT =      -1.0742E-02

 PERCENT DISCREPANCY =           0.00     PERCENT DISCREPANCY =           0.00






          TIME SUMMARY AT END OF TIME STEP  96 IN STRESS PERIOD    3
                    SECONDS     MINUTES      HOURS       DAYS        YEARS
                    -----------------------------------------------------------
   TIME STEP LENGTH  86400.      1440.0      24.000      1.0000     2.73785E-03
 STRESS PERIOD TIME 8.29440E+06 1.38240E+05  2304.0      96.000     0.26283    
         TOTAL TIME 1.70208E+07 2.83680E+05  4728.0      197.00     0.53936    
1
 
 SOLVING FOR HEAD 

 OUTPUT CONTROL FOR STRESS PERIOD    3   TIME STEP  97
    SAVE HEAD FOR ALL LAYERS
    SAVE DRAWDOWN FOR ALL LAYERS
    SAVE BUDGET
    PRINT HEAD FOR ALL LAYERS
    PRINT BUDGET
 UBDSV1 SAVING "         STORAGE" ON UNIT  53 AT TIME STEP 97, STRESS PERIOD   3
 UBDSV2 SAVING "   CONSTANT HEAD" ON UNIT  53 AT TIME STEP 97, STRESS PERIOD   3
 UBDSV1 SAVING "FLOW RIGHT FACE " ON UNIT  53 AT TIME STEP 97, STRESS PERIOD   3
 UBDSV1 SAVING "FLOW FRONT FACE " ON UNIT  53 AT TIME STEP 97, STRESS PERIOD   3
1
              HEAD IN LAYER   1 AT END OF TIME STEP  97 IN STRESS PERIOD    3
  ---------------------------------------------------------------------------

            1           2           3           4           5           6           7           8           9          10
 ........................................................................................................................
   1    9.989       8.896       7.786       6.667       5.558       4.472       3.392       2.296       1.170      1.1717E-02
   2    9.989       8.874       7.736       6.586       5.455       4.386       3.336       2.265       1.156      1.1583E-02
   3    9.989       8.832       7.637       6.406       5.203       4.198       3.225       2.208       1.133      1.1345E-02
   4    9.988       8.782       7.504       6.110       4.654       3.889       3.077       2.142       1.108      1.1091E-02
   5    9.988       8.753       7.406       5.768       3.290       3.533       2.969       2.105       1.095      1.0969E-02
   6    9.988       8.784       7.507       6.114       4.659       3.893       3.081       2.144       1.109      1.1103E-02
   7    9.989       8.836       7.645       6.417       5.215       4.210       3.234       2.214       1.136      1.1376E-02
   8    9.989       8.883       7.754       6.610       5.482       4.412       3.356       2.278       1.163      1.1648E-02
   9    9.989       8.915       7.822       6.717       5.615       4.524       3.433       2.322       1.182      1.1845E-02
  10    9.989       8.930       7.853       6.765       5.670       4.574       3.468       2.343       1.192      1.1944E-02

 HEAD WILL BE SAVED ON UNIT   51 AT END OF TIME STEP  97, STRESS PERIOD    3

 DRAWDOWN WILL BE SAVED ON UNIT   52 AT END OF TIME STEP  97, STRESS PERIOD    3
1
  VOLUMETRIC BUDGET FOR ENTIRE MODEL AT END OF TIME STEP 97 IN STRESS PERIOD   3
  ------------------------------------------------------------------------------

     CUMULATIVE VOLUMES      L**3       RATES FOR THIS TIME STEP      L**3/T
     ------------------                 ------------------------

           IN:                                      IN:
           ---                                      ---
             STORAGE =       24989.7344               STORAGE =         195.8572
       CONSTANT HEAD =           0.0000         CONSTANT HEAD =           0.0000
               WELLS =           0.0000                 WELLS =           0.0000
     HEAD DEP BOUNDS =      123570.2500       HEAD DEP BOUNDS =         677.2489

            TOTAL IN =      148559.9844              TOTAL IN =         873.1061

          OUT:                                     OUT:
          ----                                     ----
             STORAGE =           0.5783               STORAGE =           0.0000
       CONSTANT HEAD =           0.0000         CONSTANT HEAD =           0.0000
               WELLS =       29100.0000                 WELLS =         300.0000
     HEAD DEP BOUNDS =      119457.3203       HEAD DEP BOUNDS =         573.1035

           TOTAL OUT =      148557.9062             TOTAL OUT =         873.1035

            IN - OUT =           2.0781              IN - OUT =       2.5635E-03

 PERCENT DISCREPANCY =           0.00     PERCENT DISCREPANCY =           0.00






          TIME SUMMARY AT END OF TIME STEP  97 IN STRESS PERIOD    3
                    SECONDS     MINUTES      HOURS       DAYS        YEARS
                    -----------------------------------------------------------
   TIME STEP LENGTH  86400.      1440.0      24.000      1.0000     2.73785E-03
 STRESS PERIOD TIME 8.38080E+06 1.39680E+05  2328.0      97.000     0.26557    
         TOTAL TIME 1.71072E+07 2.85120E+05  4752.0      198.00     0.54209    
1
 
 SOLVING FOR HEAD 

 OUTPUT CONTROL FOR STRESS PERIOD    3   TIME STEP  98
    SAVE HEAD FOR ALL LAYERS
    SAVE DRAWDOWN FOR ALL LAYERS
    SAVE BUDGET
    PRINT HEAD FOR ALL LAYERS
    PRINT BUDGET
 UBDSV1 SAVING "         STORAGE" ON UNIT  53 AT TIME STEP 98, STRESS PERIOD   3
 UBDSV2 SAVING "   CONSTANT HEAD" ON UNIT  53 AT TIME STEP 98, STRESS PERIOD   3
 UBDSV1 SAVING "FLOW RIGHT FACE " ON UNIT  53 AT TIME STEP 98, STRESS PERIOD   3
 UBDSV1 SAVING "FLOW FRONT FACE " ON UNIT  53 AT TIME STEP 98, STRESS PERIOD   3
1
              HEAD IN LAYER   1 AT END OF TIME STEP  98 IN STRESS PERIOD    3
  ---------------------------------------------------------------------------

            1           2           3           4           5           6           7           8           9          10
 ........................................................................................................................
   1    9.989       8.895       7.784       6.665       5.555       4.469       3.389       2.294       1.169      1.1707E-02
   2    9.989       8.873       7.734       6.583       5.451       4.383       3.333       2.263       1.155      1.1571E-02
   3    9.989       8.831       7.635       6.403       5.199       4.195       3.222       2.206       1.132      1.1332E-02
   4    9.988       8.781       7.501       6.106       4.650       3.885       3.073       2.139       1.106      1.1077E-02
   5    9.988       8.752       7.403       5.764       3.286       3.528       2.965       2.102       1.094      1.0954E-02
   6    9.988       8.782       7.504       6.110       4.654       3.889       3.077       2.141       1.107      1.1089E-02
   7    9.989       8.835       7.643       6.414       5.211       4.206       3.231       2.212       1.135      1.1364E-02
   8    9.989       8.882       7.752       6.608       5.479       4.409       3.354       2.276       1.162      1.1639E-02
   9    9.989       8.914       7.820       6.715       5.612       4.522       3.431       2.321       1.182      1.1837E-02
  10    9.989       8.929       7.852       6.763       5.668       4.572       3.467       2.342       1.192      1.1938E-02

 HEAD WILL BE SAVED ON UNIT   51 AT END OF TIME STEP  98, STRESS PERIOD    3

 DRAWDOWN WILL BE SAVED ON UNIT   52 AT END OF TIME STEP  98, STRESS PERIOD    3
1
  VOLUMETRIC BUDGET FOR ENTIRE MODEL AT END OF TIME STEP 98 IN STRESS PERIOD   3
  ------------------------------------------------------------------------------

     CUMULATIVE VOLUMES      L**3       RATES FOR THIS TIME STEP      L**3/T
     ------------------                 ------------------------

           IN:                                      IN:
           ---                                      ---
             STORAGE =       25184.3340               STORAGE =         194.5999
       CONSTANT HEAD =           0.0000         CONSTANT HEAD =           0.0000
               WELLS =           0.0000                 WELLS =           0.0000
     HEAD DEP BOUNDS =      124248.1953       HEAD DEP BOUNDS =         677.9415

            TOTAL IN =      149432.5312              TOTAL IN =         872.5414

          OUT:                                     OUT:
          ----                                     ----
             STORAGE =           0.5783               STORAGE =           0.0000
       CONSTANT HEAD =           0.0000         CONSTANT HEAD =           0.0000
               WELLS =       29400.0000                 WELLS =         300.0000
     HEAD DEP BOUNDS =      120029.8594       HEAD DEP BOUNDS =         572.5424

           TOTAL OUT =      149430.4375             TOTAL OUT =         872.5424

            IN - OUT =           2.0938              IN - OUT =      -1.0376E-03

 PERCENT DISCREPANCY =           0.00     PERCENT DISCREPANCY =           0.00






          TIME SUMMARY AT END OF TIME STEP  98 IN STRESS PERIOD    3
                    SECONDS     MINUTES      HOURS       DAYS        YEARS
                    -----------------------------------------------------------
   TIME STEP LENGTH  86400.      1440.0      24.000      1.0000     2.73785E-03
 STRESS PERIOD TIME 8.46720E+06 1.41120E+05  2352.0      98.000     0.26831    
         TOTAL TIME 1.71936E+07 2.86560E+05  4776.0      199.00     0.54483    
1
 
 SOLVING FOR HEAD 

 OUTPUT CONTROL FOR STRESS PERIOD    3   TIME STEP  99
    SAVE HEAD FOR ALL LAYERS
    SAVE DRAWDOWN FOR ALL LAYERS
    SAVE BUDGET
    PRINT HEAD FOR ALL LAYERS
    PRINT BUDGET
 UBDSV1 SAVING "         STORAGE" ON UNIT  53 AT TIME STEP 99, STRESS PERIOD   3
 UBDSV2 SAVING "   CONSTANT HEAD" ON UNIT  53 AT TIME STEP 99, STRESS PERIOD   3
 UBDSV1 SAVING "FLOW RIGHT FACE " ON UNIT  53 AT TIME STEP 99, STRESS PERIOD   3
 UBDSV1 SAVING "FLOW FRONT FACE " ON UNIT  53 AT TIME STEP 99, STRESS PERIOD   3
1
              HEAD IN LAYER   1 AT END OF TIME STEP  99 IN STRESS PERIOD    3
  ---------------------------------------------------------------------------

            1           2           3           4           5           6           7           8           9          10
 ........................................................................................................................
   1    9.989       8.894       7.782       6.662       5.551       4.466       3.387       2.292       1.168      1.1696E-02
   2    9.989       8.872       7.732       6.580       5.448       4.380       3.330       2.261       1.154      1.1560E-02
   3    9.989       8.830       7.632       6.399       5.195       4.191       3.219       2.203       1.130      1.1320E-02
   4    9.988       8.779       7.498       6.102       4.645       3.880       3.070       2.136       1.105      1.1063E-02
   5    9.988       8.750       7.400       5.760       3.281       3.524       2.962       2.099       1.093      1.0940E-02
   6    9.988       8.781       7.502       6.107       4.650       3.885       3.074       2.139       1.106      1.1076E-02
   7    9.989       8.834       7.641       6.411       5.208       4.203       3.228       2.210       1.134      1.1352E-02
   8    9.989       8.881       7.750       6.605       5.476       4.406       3.351       2.275       1.161      1.1629E-02
   9    9.989       8.913       7.819       6.713       5.610       4.520       3.429       2.319       1.181      1.1830E-02
  10    9.989       8.928       7.850       6.761       5.666       4.570       3.465       2.341       1.191      1.1931E-02

 HEAD WILL BE SAVED ON UNIT   51 AT END OF TIME STEP  99, STRESS PERIOD    3

 DRAWDOWN WILL BE SAVED ON UNIT   52 AT END OF TIME STEP  99, STRESS PERIOD    3
1
  VOLUMETRIC BUDGET FOR ENTIRE MODEL AT END OF TIME STEP 99 IN STRESS PERIOD   3
  ------------------------------------------------------------------------------

     CUMULATIVE VOLUMES      L**3       RATES FOR THIS TIME STEP      L**3/T
     ------------------                 ------------------------

           IN:                                      IN:
           ---                                      ---
             STORAGE =       25377.6953               STORAGE =         193.3607
       CONSTANT HEAD =           0.0000         CONSTANT HEAD =           0.0000
               WELLS =           0.0000                 WELLS =           0.0000
     HEAD DEP BOUNDS =      124926.8281       HEAD DEP BOUNDS =         678.6295

            TOTAL IN =      150304.5312              TOTAL IN =         871.9901

          OUT:                                     OUT:
          ----                                     ----
             STORAGE =           0.5783               STORAGE =           0.0000
       CONSTANT HEAD =           0.0000         CONSTANT HEAD =           0.0000
               WELLS =       29700.0000                 WELLS =         300.0000
     HEAD DEP BOUNDS =      120601.8438       HEAD DEP BOUNDS =         571.9875

           TOTAL OUT =      150302.4219             TOTAL OUT =         871.9875

            IN - OUT =           2.1094              IN - OUT =       2.6245E-03

 PERCENT DISCREPANCY =           0.00     PERCENT DISCREPANCY =           0.00






          TIME SUMMARY AT END OF TIME STEP  99 IN STRESS PERIOD    3
                    SECONDS     MINUTES      HOURS       DAYS        YEARS
                    -----------------------------------------------------------
   TIME STEP LENGTH  86400.      1440.0      24.000      1.0000     2.73785E-03
 STRESS PERIOD TIME 8.55360E+06 1.42560E+05  2376.0      99.000     0.27105    
         TOTAL TIME 1.72800E+07 2.88000E+05  4800.0      200.00     0.54757    
1
 
 SOLVING FOR HEAD 

 OUTPUT CONTROL FOR STRESS PERIOD    3   TIME STEP 100
    SAVE HEAD FOR ALL LAYERS
    SAVE DRAWDOWN FOR ALL LAYERS
    SAVE BUDGET
    PRINT HEAD FOR ALL LAYERS
    PRINT BUDGET
 UBDSV1 SAVING "         STORAGE" ON UNIT  53 AT TIME STEP100, STRESS PERIOD   3
 UBDSV2 SAVING "   CONSTANT HEAD" ON UNIT  53 AT TIME STEP100, STRESS PERIOD   3
 UBDSV1 SAVING "FLOW RIGHT FACE " ON UNIT  53 AT TIME STEP100, STRESS PERIOD   3
 UBDSV1 SAVING "FLOW FRONT FACE " ON UNIT  53 AT TIME STEP100, STRESS PERIOD   3
1
              HEAD IN LAYER   1 AT END OF TIME STEP 100 IN STRESS PERIOD    3
  ---------------------------------------------------------------------------

            1           2           3           4           5           6           7           8           9          10
 ........................................................................................................................
   1    9.989       8.893       7.780       6.659       5.548       4.463       3.384       2.290       1.167      1.1686E-02
   2    9.989       8.870       7.730       6.576       5.444       4.376       3.327       2.259       1.153      1.1549E-02
   3    9.989       8.828       7.630       6.396       5.191       4.187       3.215       2.201       1.129      1.1307E-02
   4    9.988       8.778       7.496       6.098       4.641       3.876       3.066       2.134       1.104      1.1049E-02
   5    9.988       8.749       7.397       5.757       3.277       3.520       2.958       2.097       1.091      1.0926E-02
   6    9.988       8.780       7.499       6.103       4.646       3.881       3.070       2.136       1.105      1.1062E-02
   7    9.989       8.833       7.638       6.408       5.204       4.199       3.225       2.207       1.132      1.1341E-02
   8    9.989       8.880       7.748       6.602       5.473       4.403       3.349       2.273       1.160      1.1620E-02
   9    9.989       8.912       7.817       6.711       5.608       4.517       3.427       2.318       1.180      1.1822E-02
  10    9.989       8.927       7.849       6.759       5.664       4.568       3.463       2.340       1.190      1.1925E-02

 HEAD WILL BE SAVED ON UNIT   51 AT END OF TIME STEP 100, STRESS PERIOD    3

 DRAWDOWN WILL BE SAVED ON UNIT   52 AT END OF TIME STEP 100, STRESS PERIOD    3
1
  VOLUMETRIC BUDGET FOR ENTIRE MODEL AT END OF TIME STEP100 IN STRESS PERIOD   3
  ------------------------------------------------------------------------------

     CUMULATIVE VOLUMES      L**3       RATES FOR THIS TIME STEP      L**3/T
     ------------------                 ------------------------

           IN:                                      IN:
           ---                                      ---
             STORAGE =       25569.8184               STORAGE =         192.1238
       CONSTANT HEAD =           0.0000         CONSTANT HEAD =           0.0000
               WELLS =           0.0000                 WELLS =           0.0000
     HEAD DEP BOUNDS =      125606.1172       HEAD DEP BOUNDS =         679.2929

            TOTAL IN =      151175.9375              TOTAL IN =         871.4167

          OUT:                                     OUT:
          ----                                     ----
             STORAGE =           0.5783               STORAGE =           0.0000
       CONSTANT HEAD =           0.0000         CONSTANT HEAD =           0.0000
               WELLS =       30000.0000                 WELLS =         300.0000
     HEAD DEP BOUNDS =      121173.2812       HEAD DEP BOUNDS =         571.4347

           TOTAL OUT =      151173.8594             TOTAL OUT =         871.4347

            IN - OUT =           2.0781              IN - OUT =      -1.7944E-02

 PERCENT DISCREPANCY =           0.00     PERCENT DISCREPANCY =           0.00






          TIME SUMMARY AT END OF TIME STEP 100 IN STRESS PERIOD    3
                    SECONDS     MINUTES      HOURS       DAYS        YEARS
                    -----------------------------------------------------------
   TIME STEP LENGTH  86400.      1440.0      24.000      1.0000     2.73785E-03
 STRESS PERIOD TIME 8.64000E+06 1.44000E+05  2400.0      100.00     0.27379    
         TOTAL TIME 1.73664E+07 2.89440E+05  4824.0      201.00     0.55031    
1

 Run end date and time (yyyy/mm/dd hh:mm:ss): 2025/03/17 11:11:34
 Elapsed run time:  0.147 Seconds

